version 2
run General-0-20201008-11:52:49-2316
attr configname General
attr datetime 20201008-11:52:49
attr experiment General
attr inifile omnetpp.ini
attr iterationvars ""
attr iterationvarsf ""
attr measurement ""
attr network inet.examples.inet.broadcast.UDPBroadcastNetwork
attr processid 2316
attr repetition 0
attr replication #0
attr resultdir results
attr runnumber 0
attr seedset 0
param **.client.numApps 1
param **.client.app[0].typename "\"UdpBasicApp\""
param **.client.app[*].destAddresses "\"10.0.1.255\""
param **.client.app[0].destPort 1000
param **.client.app[0].messageLength 100B
param **.client.app[0].startTime 10s
param **.client.app[0].sendInterval 1s
param **.numTargets 3
param **.target[*].numApps 1
param **.target[*].app[0].typename "\"UdpSink\""
param **.target[*].app[0].localPort 1000
param **.nonTarget.numApps 1
param **.nonTarget.app[0].typename "\"UdpSink\""
param **.nonTarget.app[0].localPort 1000
param *.R2.ipv4.ip.directBroadcastInterfaces "\"eth0\""

scalar UDPBroadcastNetwork.target[0].lo[0].lo rcvdPkFromHl:count 0
attr interpolationmode none
attr source packetReceivedFromUpper
attr title "packets received from higher layer, count"
scalar UDPBroadcastNetwork.target[0].lo[0].lo rcvdPkFromHl:sum(packetBytes) 0
attr interpolationmode none
attr source packetReceivedFromUpper
attr title "packets received from higher layer, sum(packetBytes)"
scalar UDPBroadcastNetwork.target[0].lo[0].lo passedUpPk:count 0
attr interpolationmode none
attr source packetSentToUpper
attr title "packets passed to higher layer, count"
scalar UDPBroadcastNetwork.target[0].lo[0].lo passedUpPk:sum(packetBytes) 0
attr interpolationmode none
attr source packetSentToUpper
attr title "packets passed to higher layer, sum(packetBytes)"
scalar UDPBroadcastNetwork.target[0].eth[0].mac.queue packetPopped:count 0
attr interpolationmode none
attr title "packet popped, count"
scalar UDPBroadcastNetwork.target[0].eth[0].mac.queue packetPopped:sum(packetBytes) 0
attr interpolationmode none
attr title "packet popped, sum(packetBytes)"
statistic UDPBroadcastNetwork.target[0].eth[0].mac.queue queueingTime:histogram
field count 0
field mean nan
field stddev nan
field min nan
field max nan
field sum 0
field sqrsum 0
attr interpolationmode none
attr source queueingTime(packetPopped)
attr title "queueing times, histogram"
attr unit s
bin	-inf	0
bin	0	0
bin	1	0
scalar UDPBroadcastNetwork.target[0].eth[0].mac.queue queueLength:max nan
attr interpolationmode sample-hold
attr source "count(packetPushed) - count(packetPopped) - count(packetRemoved) - count(packetDropped)"
attr title "queue length, max"
scalar UDPBroadcastNetwork.target[0].eth[0].mac.queue queueLength:timeavg nan
attr interpolationmode sample-hold
attr source "count(packetPushed) - count(packetPopped) - count(packetRemoved) - count(packetDropped)"
attr title "queue length, timeavg"
scalar UDPBroadcastNetwork.target[0].eth[0].mac.queue packetPushed:count 0
attr interpolationmode none
attr title "packet pushed, count"
scalar UDPBroadcastNetwork.target[0].eth[0].mac.queue packetPushed:sum(packetBytes) 0
attr interpolationmode none
attr title "packet pushed, sum(packetBytes)"
scalar UDPBroadcastNetwork.target[0].eth[0].mac.queue packetDropQueueOverflow:count 0
attr interpolationmode none
attr source packetDropReasonIsQueueOverflow(packetDropped)
attr title "packet drops: queue overflow, count"
scalar UDPBroadcastNetwork.target[0].eth[0].mac.queue packetDropQueueOverflow:sum(packetBytes) 0
attr interpolationmode none
attr source packetDropReasonIsQueueOverflow(packetDropped)
attr title "packet drops: queue overflow, sum(packetBytes)"
scalar UDPBroadcastNetwork.target[0].eth[0].mac.queue packetRemoved:count 0
attr interpolationmode none
attr title "packets removed, count"
scalar UDPBroadcastNetwork.target[0].eth[0].mac.queue packetRemoved:sum(packetBytes) 0
attr interpolationmode none
attr title "packets removed, sum(packetBytes)"
scalar UDPBroadcastNetwork.target[0].eth[0].mac "simulated time" 13.000216300203
scalar UDPBroadcastNetwork.target[0].eth[0].mac full-duplex 1
scalar UDPBroadcastNetwork.target[0].eth[0].mac "frames/sec sent" 0
scalar UDPBroadcastNetwork.target[0].eth[0].mac "frames/sec rcvd" 0.23076539118454
scalar UDPBroadcastNetwork.target[0].eth[0].mac "bits/sec sent" 0
scalar UDPBroadcastNetwork.target[0].eth[0].mac "bits/sec rcvd" 269.53397690354
scalar UDPBroadcastNetwork.target[0].eth[0].mac "rx channel idle (%)" 100
scalar UDPBroadcastNetwork.target[0].eth[0].mac "rx channel utilization (%)" 0
scalar UDPBroadcastNetwork.target[0].eth[0].mac txPk:count 0
attr interpolationmode none
attr source packetSentToLower
attr title "packets transmitted, count"
scalar UDPBroadcastNetwork.target[0].eth[0].mac txPk:sum(packetBytes) 0
attr interpolationmode none
attr source packetSentToLower
attr title "packets transmitted, sum(packetBytes)"
scalar UDPBroadcastNetwork.target[0].eth[0].mac packetReceivedFromUpper:count 0
attr interpolationmode none
attr source packetReceivedFromUpper
attr title "packet bytes from higher layer, count"
scalar UDPBroadcastNetwork.target[0].eth[0].mac packetReceivedFromUpper:sum(packetBytes) 0
attr interpolationmode none
attr source packetReceivedFromUpper
attr title "packet bytes from higher layer, sum(packetBytes)"
scalar UDPBroadcastNetwork.target[0].eth[0].mac passedUpPk:count 3
attr interpolationmode none
attr source packetSentToUpper
attr title "packets passed to higher layer, count"
scalar UDPBroadcastNetwork.target[0].eth[0].mac passedUpPk:sum(packetBytes) 438
attr interpolationmode none
attr source packetSentToUpper
attr title "packets passed to higher layer, sum(packetBytes)"
scalar UDPBroadcastNetwork.target[0].eth[0].mac packetDropIncorrectlyReceived:count 0
attr interpolationmode none
attr source packetDropReasonIsIncorrectlyReceived(packetDropped)
attr title "packet drop: incorrectly received, count"
scalar UDPBroadcastNetwork.target[0].eth[0].mac packetDropIncorrectlyReceived:sum(packetBytes) 0
attr interpolationmode none
attr source packetDropReasonIsIncorrectlyReceived(packetDropped)
attr title "packet drop: incorrectly received, sum(packetBytes)"
scalar UDPBroadcastNetwork.target[0].eth[0].mac packetDropInterfaceDown:count 0
attr interpolationmode none
attr source packetDropReasonIsInterfaceDown(packetDropped)
attr title "packet drop: interface down, count"
scalar UDPBroadcastNetwork.target[0].eth[0].mac packetDropInterfaceDown:sum(packetBytes) 0
attr interpolationmode none
attr source packetDropReasonIsInterfaceDown(packetDropped)
attr title "packet drop: interface down, sum(packetBytes)"
scalar UDPBroadcastNetwork.target[0].eth[0].mac packetDropNotAddressedToUs:count 0
attr interpolationmode none
attr source packetDropReasonIsNotAddressedToUs(packetDropped)
attr title "packet drop: not addressed to us, count"
scalar UDPBroadcastNetwork.target[0].eth[0].mac packetDropNotAddressedToUs:sum(packetBytes) 0
attr interpolationmode none
attr source packetDropReasonIsNotAddressedToUs(packetDropped)
attr title "packet drop: not addressed to us, sum(packetBytes)"
scalar UDPBroadcastNetwork.target[0].eth[0].mac rxPausePkUnits:count 0
attr interpolationmode none
attr title "pause units received, count"
scalar UDPBroadcastNetwork.target[0].eth[0].mac rxPausePkUnits:sum 0
attr interpolationmode none
attr title "pause units received, sum"
scalar UDPBroadcastNetwork.target[0].eth[0].mac txPausePkUnits:count 0
attr interpolationmode none
attr title "pause units sent, count"
scalar UDPBroadcastNetwork.target[0].eth[0].mac txPausePkUnits:sum 0
attr interpolationmode none
attr title "pause units sent, sum"
scalar UDPBroadcastNetwork.target[0].eth[0].mac rxPkOk:count 3
attr interpolationmode none
attr source rxPkOk
attr title "packets received OK, count"
scalar UDPBroadcastNetwork.target[0].eth[0].mac rxPkOk:sum(packetBytes) 438
attr interpolationmode none
attr source rxPkOk
attr title "packets received OK, sum(packetBytes)"
scalar UDPBroadcastNetwork.target[0].eth[0].encap pauseSent:count 0
attr title "pause sent, count"
scalar UDPBroadcastNetwork.target[0].eth[0].encap pauseSent:sum 0
attr title "pause sent, sum"
scalar UDPBroadcastNetwork.target[0].eth[0].encap decapPk:count 3
attr interpolationmode none
attr source decapPk
attr title "packets decapsulated, count"
scalar UDPBroadcastNetwork.target[0].eth[0].encap decapPk:sum(packetBytes) 384
attr interpolationmode none
attr source decapPk
attr title "packets decapsulated, sum(packetBytes)"
scalar UDPBroadcastNetwork.target[0].eth[0].encap encapPk:count 0
attr interpolationmode none
attr source encapPk
attr title "packets encapsulated, count"
scalar UDPBroadcastNetwork.target[0].eth[0].encap encapPk:sum(packetBytes) 0
attr interpolationmode none
attr source encapPk
attr title "packets encapsulated, sum(packetBytes)"
scalar UDPBroadcastNetwork.target[0].ipv4.ip packetDropAddressResolutionFailed:count 0
attr interpolationmode none
attr source packetDropReasonIsAddressResolutionFailed(packetDropped)
attr title "packet drop: address resolution failed, count"
scalar UDPBroadcastNetwork.target[0].ipv4.ip packetDropAddressResolutionFailed:sum(packetBytes) 0
attr interpolationmode none
attr source packetDropReasonIsAddressResolutionFailed(packetDropped)
attr title "packet drop: address resolution failed, sum(packetBytes)"
scalar UDPBroadcastNetwork.target[0].ipv4.ip packetDropHopLimitReached:count 0
attr interpolationmode none
attr source packetDropReasonIsHopLimitReached(packetDropped)
attr title "packet drop: hop limit reached, count"
scalar UDPBroadcastNetwork.target[0].ipv4.ip packetDropHopLimitReached:sum(packetBytes) 0
attr interpolationmode none
attr source packetDropReasonIsHopLimitReached(packetDropped)
attr title "packet drop: hop limit reached, sum(packetBytes)"
scalar UDPBroadcastNetwork.target[0].ipv4.ip packetDropForwardingDisabled:count 0
attr interpolationmode none
attr source packetDropReasonIsForwardingDisabled(packetDropped)
attr title "packet drop: forwarding disabled, count"
scalar UDPBroadcastNetwork.target[0].ipv4.ip packetDropForwardingDisabled:sum(packetBytes) 0
attr interpolationmode none
attr source packetDropReasonIsForwardingDisabled(packetDropped)
attr title "packet drop: forwarding disabled, sum(packetBytes)"
scalar UDPBroadcastNetwork.target[0].ipv4.ip packetDropNoInterfaceFound:count 0
attr interpolationmode none
attr source packetDropReasonIsNoInterfaceFound(packetDropped)
attr title "packet drop: no interface found, count"
scalar UDPBroadcastNetwork.target[0].ipv4.ip packetDropNoInterfaceFound:sum(packetBytes) 0
attr interpolationmode none
attr source packetDropReasonIsNoInterfaceFound(packetDropped)
attr title "packet drop: no interface found, sum(packetBytes)"
scalar UDPBroadcastNetwork.target[0].ipv4.ip packetDropNoRouteFound:count 0
attr interpolationmode none
attr source packetDropReasonIsNoRouteFound(packetDropped)
attr title "packet drop: no route found, count"
scalar UDPBroadcastNetwork.target[0].ipv4.ip packetDropNoRouteFound:sum(packetBytes) 0
attr interpolationmode none
attr source packetDropReasonIsNoRouteFound(packetDropped)
attr title "packet drop: no route found, sum(packetBytes)"
scalar UDPBroadcastNetwork.target[0].ipv4.ip packetDropUndefined:count 0
attr interpolationmode none
attr source packetDropReasonIsUndefined(packetDropped)
attr title "packet drop: undefined, count"
scalar UDPBroadcastNetwork.target[0].ipv4.ip packetDropUndefined:sum(packetBytes) 0
attr interpolationmode none
attr source packetDropReasonIsUndefined(packetDropped)
attr title "packet drop: undefined, sum(packetBytes)"
scalar UDPBroadcastNetwork.target[0].ipv4.arp arpReplySent:count 0
attr source arpReplySent
attr title "ARP replies sent, count"
scalar UDPBroadcastNetwork.target[0].ipv4.arp arpReplySent:sum(packetBytes) 0
attr source arpReplySent
attr title "ARP replies sent, sum(packetBytes)"
scalar UDPBroadcastNetwork.target[0].ipv4.arp arpRequestSent:count 0
attr source arpRequestSent
attr title "ARP request sent, count"
scalar UDPBroadcastNetwork.target[0].ipv4.arp arpRequestSent:sum(packetBytes) 0
attr source arpRequestSent
attr title "ARP request sent, sum(packetBytes)"
scalar UDPBroadcastNetwork.target[0].ipv4.arp arpResolutionFailed:count 0
attr title "ARP failed resolutions, count"
scalar UDPBroadcastNetwork.target[0].ipv4.arp arpResolutionCompleted:count 0
attr title "ARP completed resolutions, count"
scalar UDPBroadcastNetwork.target[0].ipv4.arp arpResolutionInitiated:count 0
attr title "ARP initiated resolutions, count"
scalar UDPBroadcastNetwork.target[0].udp packetReceived:count 3
attr interpolationmode none
attr source packetReceived
attr title "packets received, count"
scalar UDPBroadcastNetwork.target[0].udp packetReceived:sum(packetBytes) 324
attr interpolationmode none
attr source packetReceived
attr title "packets received, sum(packetBytes)"
scalar UDPBroadcastNetwork.target[0].udp packetSent:count 0
attr interpolationmode none
attr source packetSent
attr title "packets sent, count"
scalar UDPBroadcastNetwork.target[0].udp packetSent:sum(packetBytes) 0
attr interpolationmode none
attr source packetSent
attr title "packets sent, sum(packetBytes)"
scalar UDPBroadcastNetwork.target[0].udp passedUpPk:count 3
attr interpolationmode none
attr source packetSentToUpper
attr title "packets passed up, count"
scalar UDPBroadcastNetwork.target[0].udp droppedPkWrongPort:count 0
attr interpolationmode none
attr source packetDropReasonIsNoPortFound(packetDropped)
attr title "packets dropped (wrong port), count"
scalar UDPBroadcastNetwork.target[0].udp droppedPkBadChecksum:count 0
attr interpolationmode none
attr source packetDropReasonIsIncorrectlyReceived(packetDropped)
attr title "packets dropped (checksum error), count"
scalar UDPBroadcastNetwork.target[0].app[0] packetReceived:count 3
attr interpolationmode none
attr source packetReceived
attr title "packets received, count"
scalar UDPBroadcastNetwork.target[0].app[0] packetReceived:sum(packetBytes) 300
attr interpolationmode none
attr source packetReceived
attr title "packets received, sum(packetBytes)"
statistic UDPBroadcastNetwork.target[0].app[0] endToEndDelay:histogram
field count 3
field mean 0.0004628
field stddev 0
field min 0.0004628
field max 0.0004628
field sum 0.0013884
field sqrsum 6.4255152e-007
attr interpolationmode none
attr source dataAge(packetReceived)
attr title "end-to-end delay, histogram"
attr unit s
bin	-inf	0
bin	0	3
bin	0.01	0
bin	0.02	0
bin	0.03	0
bin	0.04	0
bin	0.05	0
bin	0.06	0
bin	0.07	0
bin	0.08	0
bin	0.09	0
bin	0.1	0
bin	0.11	0
bin	0.12	0
bin	0.13	0
bin	0.14	0
bin	0.15	0
bin	0.16	0
bin	0.17	0
bin	0.18	0
bin	0.19	0
bin	0.2	0
bin	0.21	0
bin	0.22	0
bin	0.23	0
bin	0.24	0
bin	0.25	0
bin	0.26	0
bin	0.27	0
bin	0.28	0
bin	0.29	0
bin	0.3	0
bin	0.31	0
bin	0.32	0
bin	0.33	0
bin	0.34	0
bin	0.35	0
bin	0.36	0
bin	0.37	0
bin	0.38	0
bin	0.39	0
bin	0.4	0
bin	0.41	0
bin	0.42	0
bin	0.43	0
bin	0.44	0
bin	0.45	0
bin	0.46	0
bin	0.47	0
bin	0.48	0
bin	0.49	0
bin	0.5	0
bin	0.51	0
scalar UDPBroadcastNetwork.target[1].lo[0].lo rcvdPkFromHl:count 0
attr interpolationmode none
attr source packetReceivedFromUpper
attr title "packets received from higher layer, count"
scalar UDPBroadcastNetwork.target[1].lo[0].lo rcvdPkFromHl:sum(packetBytes) 0
attr interpolationmode none
attr source packetReceivedFromUpper
attr title "packets received from higher layer, sum(packetBytes)"
scalar UDPBroadcastNetwork.target[1].lo[0].lo passedUpPk:count 0
attr interpolationmode none
attr source packetSentToUpper
attr title "packets passed to higher layer, count"
scalar UDPBroadcastNetwork.target[1].lo[0].lo passedUpPk:sum(packetBytes) 0
attr interpolationmode none
attr source packetSentToUpper
attr title "packets passed to higher layer, sum(packetBytes)"
scalar UDPBroadcastNetwork.target[1].eth[0].mac.queue packetPopped:count 0
attr interpolationmode none
attr title "packet popped, count"
scalar UDPBroadcastNetwork.target[1].eth[0].mac.queue packetPopped:sum(packetBytes) 0
attr interpolationmode none
attr title "packet popped, sum(packetBytes)"
statistic UDPBroadcastNetwork.target[1].eth[0].mac.queue queueingTime:histogram
field count 0
field mean nan
field stddev nan
field min nan
field max nan
field sum 0
field sqrsum 0
attr interpolationmode none
attr source queueingTime(packetPopped)
attr title "queueing times, histogram"
attr unit s
bin	-inf	0
bin	0	0
bin	1	0
scalar UDPBroadcastNetwork.target[1].eth[0].mac.queue queueLength:max nan
attr interpolationmode sample-hold
attr source "count(packetPushed) - count(packetPopped) - count(packetRemoved) - count(packetDropped)"
attr title "queue length, max"
scalar UDPBroadcastNetwork.target[1].eth[0].mac.queue queueLength:timeavg nan
attr interpolationmode sample-hold
attr source "count(packetPushed) - count(packetPopped) - count(packetRemoved) - count(packetDropped)"
attr title "queue length, timeavg"
scalar UDPBroadcastNetwork.target[1].eth[0].mac.queue packetPushed:count 0
attr interpolationmode none
attr title "packet pushed, count"
scalar UDPBroadcastNetwork.target[1].eth[0].mac.queue packetPushed:sum(packetBytes) 0
attr interpolationmode none
attr title "packet pushed, sum(packetBytes)"
scalar UDPBroadcastNetwork.target[1].eth[0].mac.queue packetDropQueueOverflow:count 0
attr interpolationmode none
attr source packetDropReasonIsQueueOverflow(packetDropped)
attr title "packet drops: queue overflow, count"
scalar UDPBroadcastNetwork.target[1].eth[0].mac.queue packetDropQueueOverflow:sum(packetBytes) 0
attr interpolationmode none
attr source packetDropReasonIsQueueOverflow(packetDropped)
attr title "packet drops: queue overflow, sum(packetBytes)"
scalar UDPBroadcastNetwork.target[1].eth[0].mac.queue packetRemoved:count 0
attr interpolationmode none
attr title "packets removed, count"
scalar UDPBroadcastNetwork.target[1].eth[0].mac.queue packetRemoved:sum(packetBytes) 0
attr interpolationmode none
attr title "packets removed, sum(packetBytes)"
scalar UDPBroadcastNetwork.target[1].eth[0].mac "simulated time" 13.000216300203
scalar UDPBroadcastNetwork.target[1].eth[0].mac full-duplex 1
scalar UDPBroadcastNetwork.target[1].eth[0].mac "frames/sec sent" 0
scalar UDPBroadcastNetwork.target[1].eth[0].mac "frames/sec rcvd" 0.23076539118454
scalar UDPBroadcastNetwork.target[1].eth[0].mac "bits/sec sent" 0
scalar UDPBroadcastNetwork.target[1].eth[0].mac "bits/sec rcvd" 269.53397690354
scalar UDPBroadcastNetwork.target[1].eth[0].mac "rx channel idle (%)" 100
scalar UDPBroadcastNetwork.target[1].eth[0].mac "rx channel utilization (%)" 0
scalar UDPBroadcastNetwork.target[1].eth[0].mac txPk:count 0
attr interpolationmode none
attr source packetSentToLower
attr title "packets transmitted, count"
scalar UDPBroadcastNetwork.target[1].eth[0].mac txPk:sum(packetBytes) 0
attr interpolationmode none
attr source packetSentToLower
attr title "packets transmitted, sum(packetBytes)"
scalar UDPBroadcastNetwork.target[1].eth[0].mac packetReceivedFromUpper:count 0
attr interpolationmode none
attr source packetReceivedFromUpper
attr title "packet bytes from higher layer, count"
scalar UDPBroadcastNetwork.target[1].eth[0].mac packetReceivedFromUpper:sum(packetBytes) 0
attr interpolationmode none
attr source packetReceivedFromUpper
attr title "packet bytes from higher layer, sum(packetBytes)"
scalar UDPBroadcastNetwork.target[1].eth[0].mac passedUpPk:count 3
attr interpolationmode none
attr source packetSentToUpper
attr title "packets passed to higher layer, count"
scalar UDPBroadcastNetwork.target[1].eth[0].mac passedUpPk:sum(packetBytes) 438
attr interpolationmode none
attr source packetSentToUpper
attr title "packets passed to higher layer, sum(packetBytes)"
scalar UDPBroadcastNetwork.target[1].eth[0].mac packetDropIncorrectlyReceived:count 0
attr interpolationmode none
attr source packetDropReasonIsIncorrectlyReceived(packetDropped)
attr title "packet drop: incorrectly received, count"
scalar UDPBroadcastNetwork.target[1].eth[0].mac packetDropIncorrectlyReceived:sum(packetBytes) 0
attr interpolationmode none
attr source packetDropReasonIsIncorrectlyReceived(packetDropped)
attr title "packet drop: incorrectly received, sum(packetBytes)"
scalar UDPBroadcastNetwork.target[1].eth[0].mac packetDropInterfaceDown:count 0
attr interpolationmode none
attr source packetDropReasonIsInterfaceDown(packetDropped)
attr title "packet drop: interface down, count"
scalar UDPBroadcastNetwork.target[1].eth[0].mac packetDropInterfaceDown:sum(packetBytes) 0
attr interpolationmode none
attr source packetDropReasonIsInterfaceDown(packetDropped)
attr title "packet drop: interface down, sum(packetBytes)"
scalar UDPBroadcastNetwork.target[1].eth[0].mac packetDropNotAddressedToUs:count 0
attr interpolationmode none
attr source packetDropReasonIsNotAddressedToUs(packetDropped)
attr title "packet drop: not addressed to us, count"
scalar UDPBroadcastNetwork.target[1].eth[0].mac packetDropNotAddressedToUs:sum(packetBytes) 0
attr interpolationmode none
attr source packetDropReasonIsNotAddressedToUs(packetDropped)
attr title "packet drop: not addressed to us, sum(packetBytes)"
scalar UDPBroadcastNetwork.target[1].eth[0].mac rxPausePkUnits:count 0
attr interpolationmode none
attr title "pause units received, count"
scalar UDPBroadcastNetwork.target[1].eth[0].mac rxPausePkUnits:sum 0
attr interpolationmode none
attr title "pause units received, sum"
scalar UDPBroadcastNetwork.target[1].eth[0].mac txPausePkUnits:count 0
attr interpolationmode none
attr title "pause units sent, count"
scalar UDPBroadcastNetwork.target[1].eth[0].mac txPausePkUnits:sum 0
attr interpolationmode none
attr title "pause units sent, sum"
scalar UDPBroadcastNetwork.target[1].eth[0].mac rxPkOk:count 3
attr interpolationmode none
attr source rxPkOk
attr title "packets received OK, count"
scalar UDPBroadcastNetwork.target[1].eth[0].mac rxPkOk:sum(packetBytes) 438
attr interpolationmode none
attr source rxPkOk
attr title "packets received OK, sum(packetBytes)"
scalar UDPBroadcastNetwork.target[1].eth[0].encap pauseSent:count 0
attr title "pause sent, count"
scalar UDPBroadcastNetwork.target[1].eth[0].encap pauseSent:sum 0
attr title "pause sent, sum"
scalar UDPBroadcastNetwork.target[1].eth[0].encap decapPk:count 3
attr interpolationmode none
attr source decapPk
attr title "packets decapsulated, count"
scalar UDPBroadcastNetwork.target[1].eth[0].encap decapPk:sum(packetBytes) 384
attr interpolationmode none
attr source decapPk
attr title "packets decapsulated, sum(packetBytes)"
scalar UDPBroadcastNetwork.target[1].eth[0].encap encapPk:count 0
attr interpolationmode none
attr source encapPk
attr title "packets encapsulated, count"
scalar UDPBroadcastNetwork.target[1].eth[0].encap encapPk:sum(packetBytes) 0
attr interpolationmode none
attr source encapPk
attr title "packets encapsulated, sum(packetBytes)"
scalar UDPBroadcastNetwork.target[1].ipv4.ip packetDropAddressResolutionFailed:count 0
attr interpolationmode none
attr source packetDropReasonIsAddressResolutionFailed(packetDropped)
attr title "packet drop: address resolution failed, count"
scalar UDPBroadcastNetwork.target[1].ipv4.ip packetDropAddressResolutionFailed:sum(packetBytes) 0
attr interpolationmode none
attr source packetDropReasonIsAddressResolutionFailed(packetDropped)
attr title "packet drop: address resolution failed, sum(packetBytes)"
scalar UDPBroadcastNetwork.target[1].ipv4.ip packetDropHopLimitReached:count 0
attr interpolationmode none
attr source packetDropReasonIsHopLimitReached(packetDropped)
attr title "packet drop: hop limit reached, count"
scalar UDPBroadcastNetwork.target[1].ipv4.ip packetDropHopLimitReached:sum(packetBytes) 0
attr interpolationmode none
attr source packetDropReasonIsHopLimitReached(packetDropped)
attr title "packet drop: hop limit reached, sum(packetBytes)"
scalar UDPBroadcastNetwork.target[1].ipv4.ip packetDropForwardingDisabled:count 0
attr interpolationmode none
attr source packetDropReasonIsForwardingDisabled(packetDropped)
attr title "packet drop: forwarding disabled, count"
scalar UDPBroadcastNetwork.target[1].ipv4.ip packetDropForwardingDisabled:sum(packetBytes) 0
attr interpolationmode none
attr source packetDropReasonIsForwardingDisabled(packetDropped)
attr title "packet drop: forwarding disabled, sum(packetBytes)"
scalar UDPBroadcastNetwork.target[1].ipv4.ip packetDropNoInterfaceFound:count 0
attr interpolationmode none
attr source packetDropReasonIsNoInterfaceFound(packetDropped)
attr title "packet drop: no interface found, count"
scalar UDPBroadcastNetwork.target[1].ipv4.ip packetDropNoInterfaceFound:sum(packetBytes) 0
attr interpolationmode none
attr source packetDropReasonIsNoInterfaceFound(packetDropped)
attr title "packet drop: no interface found, sum(packetBytes)"
scalar UDPBroadcastNetwork.target[1].ipv4.ip packetDropNoRouteFound:count 0
attr interpolationmode none
attr source packetDropReasonIsNoRouteFound(packetDropped)
attr title "packet drop: no route found, count"
scalar UDPBroadcastNetwork.target[1].ipv4.ip packetDropNoRouteFound:sum(packetBytes) 0
attr interpolationmode none
attr source packetDropReasonIsNoRouteFound(packetDropped)
attr title "packet drop: no route found, sum(packetBytes)"
scalar UDPBroadcastNetwork.target[1].ipv4.ip packetDropUndefined:count 0
attr interpolationmode none
attr source packetDropReasonIsUndefined(packetDropped)
attr title "packet drop: undefined, count"
scalar UDPBroadcastNetwork.target[1].ipv4.ip packetDropUndefined:sum(packetBytes) 0
attr interpolationmode none
attr source packetDropReasonIsUndefined(packetDropped)
attr title "packet drop: undefined, sum(packetBytes)"
scalar UDPBroadcastNetwork.target[1].ipv4.arp arpReplySent:count 0
attr source arpReplySent
attr title "ARP replies sent, count"
scalar UDPBroadcastNetwork.target[1].ipv4.arp arpReplySent:sum(packetBytes) 0
attr source arpReplySent
attr title "ARP replies sent, sum(packetBytes)"
scalar UDPBroadcastNetwork.target[1].ipv4.arp arpRequestSent:count 0
attr source arpRequestSent
attr title "ARP request sent, count"
scalar UDPBroadcastNetwork.target[1].ipv4.arp arpRequestSent:sum(packetBytes) 0
attr source arpRequestSent
attr title "ARP request sent, sum(packetBytes)"
scalar UDPBroadcastNetwork.target[1].ipv4.arp arpResolutionFailed:count 0
attr title "ARP failed resolutions, count"
scalar UDPBroadcastNetwork.target[1].ipv4.arp arpResolutionCompleted:count 0
attr title "ARP completed resolutions, count"
scalar UDPBroadcastNetwork.target[1].ipv4.arp arpResolutionInitiated:count 0
attr title "ARP initiated resolutions, count"
scalar UDPBroadcastNetwork.target[1].udp packetReceived:count 3
attr interpolationmode none
attr source packetReceived
attr title "packets received, count"
scalar UDPBroadcastNetwork.target[1].udp packetReceived:sum(packetBytes) 324
attr interpolationmode none
attr source packetReceived
attr title "packets received, sum(packetBytes)"
scalar UDPBroadcastNetwork.target[1].udp packetSent:count 0
attr interpolationmode none
attr source packetSent
attr title "packets sent, count"
scalar UDPBroadcastNetwork.target[1].udp packetSent:sum(packetBytes) 0
attr interpolationmode none
attr source packetSent
attr title "packets sent, sum(packetBytes)"
scalar UDPBroadcastNetwork.target[1].udp passedUpPk:count 3
attr interpolationmode none
attr source packetSentToUpper
attr title "packets passed up, count"
scalar UDPBroadcastNetwork.target[1].udp droppedPkWrongPort:count 0
attr interpolationmode none
attr source packetDropReasonIsNoPortFound(packetDropped)
attr title "packets dropped (wrong port), count"
scalar UDPBroadcastNetwork.target[1].udp droppedPkBadChecksum:count 0
attr interpolationmode none
attr source packetDropReasonIsIncorrectlyReceived(packetDropped)
attr title "packets dropped (checksum error), count"
scalar UDPBroadcastNetwork.target[1].app[0] packetReceived:count 3
attr interpolationmode none
attr source packetReceived
attr title "packets received, count"
scalar UDPBroadcastNetwork.target[1].app[0] packetReceived:sum(packetBytes) 300
attr interpolationmode none
attr source packetReceived
attr title "packets received, sum(packetBytes)"
statistic UDPBroadcastNetwork.target[1].app[0] endToEndDelay:histogram
field count 3
field mean 0.0004628
field stddev 0
field min 0.0004628
field max 0.0004628
field sum 0.0013884
field sqrsum 6.4255152e-007
attr interpolationmode none
attr source dataAge(packetReceived)
attr title "end-to-end delay, histogram"
attr unit s
bin	-inf	0
bin	0	3
bin	0.01	0
bin	0.02	0
bin	0.03	0
bin	0.04	0
bin	0.05	0
bin	0.06	0
bin	0.07	0
bin	0.08	0
bin	0.09	0
bin	0.1	0
bin	0.11	0
bin	0.12	0
bin	0.13	0
bin	0.14	0
bin	0.15	0
bin	0.16	0
bin	0.17	0
bin	0.18	0
bin	0.19	0
bin	0.2	0
bin	0.21	0
bin	0.22	0
bin	0.23	0
bin	0.24	0
bin	0.25	0
bin	0.26	0
bin	0.27	0
bin	0.28	0
bin	0.29	0
bin	0.3	0
bin	0.31	0
bin	0.32	0
bin	0.33	0
bin	0.34	0
bin	0.35	0
bin	0.36	0
bin	0.37	0
bin	0.38	0
bin	0.39	0
bin	0.4	0
bin	0.41	0
bin	0.42	0
bin	0.43	0
bin	0.44	0
bin	0.45	0
bin	0.46	0
bin	0.47	0
bin	0.48	0
bin	0.49	0
bin	0.5	0
bin	0.51	0
scalar UDPBroadcastNetwork.target[2].lo[0].lo rcvdPkFromHl:count 0
attr interpolationmode none
attr source packetReceivedFromUpper
attr title "packets received from higher layer, count"
scalar UDPBroadcastNetwork.target[2].lo[0].lo rcvdPkFromHl:sum(packetBytes) 0
attr interpolationmode none
attr source packetReceivedFromUpper
attr title "packets received from higher layer, sum(packetBytes)"
scalar UDPBroadcastNetwork.target[2].lo[0].lo passedUpPk:count 0
attr interpolationmode none
attr source packetSentToUpper
attr title "packets passed to higher layer, count"
scalar UDPBroadcastNetwork.target[2].lo[0].lo passedUpPk:sum(packetBytes) 0
attr interpolationmode none
attr source packetSentToUpper
attr title "packets passed to higher layer, sum(packetBytes)"
scalar UDPBroadcastNetwork.target[2].eth[0].mac.queue packetPopped:count 0
attr interpolationmode none
attr title "packet popped, count"
scalar UDPBroadcastNetwork.target[2].eth[0].mac.queue packetPopped:sum(packetBytes) 0
attr interpolationmode none
attr title "packet popped, sum(packetBytes)"
statistic UDPBroadcastNetwork.target[2].eth[0].mac.queue queueingTime:histogram
field count 0
field mean nan
field stddev nan
field min nan
field max nan
field sum 0
field sqrsum 0
attr interpolationmode none
attr source queueingTime(packetPopped)
attr title "queueing times, histogram"
attr unit s
bin	-inf	0
bin	0	0
bin	1	0
scalar UDPBroadcastNetwork.target[2].eth[0].mac.queue queueLength:max nan
attr interpolationmode sample-hold
attr source "count(packetPushed) - count(packetPopped) - count(packetRemoved) - count(packetDropped)"
attr title "queue length, max"
scalar UDPBroadcastNetwork.target[2].eth[0].mac.queue queueLength:timeavg nan
attr interpolationmode sample-hold
attr source "count(packetPushed) - count(packetPopped) - count(packetRemoved) - count(packetDropped)"
attr title "queue length, timeavg"
scalar UDPBroadcastNetwork.target[2].eth[0].mac.queue packetPushed:count 0
attr interpolationmode none
attr title "packet pushed, count"
scalar UDPBroadcastNetwork.target[2].eth[0].mac.queue packetPushed:sum(packetBytes) 0
attr interpolationmode none
attr title "packet pushed, sum(packetBytes)"
scalar UDPBroadcastNetwork.target[2].eth[0].mac.queue packetDropQueueOverflow:count 0
attr interpolationmode none
attr source packetDropReasonIsQueueOverflow(packetDropped)
attr title "packet drops: queue overflow, count"
scalar UDPBroadcastNetwork.target[2].eth[0].mac.queue packetDropQueueOverflow:sum(packetBytes) 0
attr interpolationmode none
attr source packetDropReasonIsQueueOverflow(packetDropped)
attr title "packet drops: queue overflow, sum(packetBytes)"
scalar UDPBroadcastNetwork.target[2].eth[0].mac.queue packetRemoved:count 0
attr interpolationmode none
attr title "packets removed, count"
scalar UDPBroadcastNetwork.target[2].eth[0].mac.queue packetRemoved:sum(packetBytes) 0
attr interpolationmode none
attr title "packets removed, sum(packetBytes)"
scalar UDPBroadcastNetwork.target[2].eth[0].mac "simulated time" 13.000216300203
scalar UDPBroadcastNetwork.target[2].eth[0].mac full-duplex 1
scalar UDPBroadcastNetwork.target[2].eth[0].mac "frames/sec sent" 0
scalar UDPBroadcastNetwork.target[2].eth[0].mac "frames/sec rcvd" 0.23076539118454
scalar UDPBroadcastNetwork.target[2].eth[0].mac "bits/sec sent" 0
scalar UDPBroadcastNetwork.target[2].eth[0].mac "bits/sec rcvd" 269.53397690354
scalar UDPBroadcastNetwork.target[2].eth[0].mac "rx channel idle (%)" 100
scalar UDPBroadcastNetwork.target[2].eth[0].mac "rx channel utilization (%)" 0
scalar UDPBroadcastNetwork.target[2].eth[0].mac txPk:count 0
attr interpolationmode none
attr source packetSentToLower
attr title "packets transmitted, count"
scalar UDPBroadcastNetwork.target[2].eth[0].mac txPk:sum(packetBytes) 0
attr interpolationmode none
attr source packetSentToLower
attr title "packets transmitted, sum(packetBytes)"
scalar UDPBroadcastNetwork.target[2].eth[0].mac packetReceivedFromUpper:count 0
attr interpolationmode none
attr source packetReceivedFromUpper
attr title "packet bytes from higher layer, count"
scalar UDPBroadcastNetwork.target[2].eth[0].mac packetReceivedFromUpper:sum(packetBytes) 0
attr interpolationmode none
attr source packetReceivedFromUpper
attr title "packet bytes from higher layer, sum(packetBytes)"
scalar UDPBroadcastNetwork.target[2].eth[0].mac passedUpPk:count 3
attr interpolationmode none
attr source packetSentToUpper
attr title "packets passed to higher layer, count"
scalar UDPBroadcastNetwork.target[2].eth[0].mac passedUpPk:sum(packetBytes) 438
attr interpolationmode none
attr source packetSentToUpper
attr title "packets passed to higher layer, sum(packetBytes)"
scalar UDPBroadcastNetwork.target[2].eth[0].mac packetDropIncorrectlyReceived:count 0
attr interpolationmode none
attr source packetDropReasonIsIncorrectlyReceived(packetDropped)
attr title "packet drop: incorrectly received, count"
scalar UDPBroadcastNetwork.target[2].eth[0].mac packetDropIncorrectlyReceived:sum(packetBytes) 0
attr interpolationmode none
attr source packetDropReasonIsIncorrectlyReceived(packetDropped)
attr title "packet drop: incorrectly received, sum(packetBytes)"
scalar UDPBroadcastNetwork.target[2].eth[0].mac packetDropInterfaceDown:count 0
attr interpolationmode none
attr source packetDropReasonIsInterfaceDown(packetDropped)
attr title "packet drop: interface down, count"
scalar UDPBroadcastNetwork.target[2].eth[0].mac packetDropInterfaceDown:sum(packetBytes) 0
attr interpolationmode none
attr source packetDropReasonIsInterfaceDown(packetDropped)
attr title "packet drop: interface down, sum(packetBytes)"
scalar UDPBroadcastNetwork.target[2].eth[0].mac packetDropNotAddressedToUs:count 0
attr interpolationmode none
attr source packetDropReasonIsNotAddressedToUs(packetDropped)
attr title "packet drop: not addressed to us, count"
scalar UDPBroadcastNetwork.target[2].eth[0].mac packetDropNotAddressedToUs:sum(packetBytes) 0
attr interpolationmode none
attr source packetDropReasonIsNotAddressedToUs(packetDropped)
attr title "packet drop: not addressed to us, sum(packetBytes)"
scalar UDPBroadcastNetwork.target[2].eth[0].mac rxPausePkUnits:count 0
attr interpolationmode none
attr title "pause units received, count"
scalar UDPBroadcastNetwork.target[2].eth[0].mac rxPausePkUnits:sum 0
attr interpolationmode none
attr title "pause units received, sum"
scalar UDPBroadcastNetwork.target[2].eth[0].mac txPausePkUnits:count 0
attr interpolationmode none
attr title "pause units sent, count"
scalar UDPBroadcastNetwork.target[2].eth[0].mac txPausePkUnits:sum 0
attr interpolationmode none
attr title "pause units sent, sum"
scalar UDPBroadcastNetwork.target[2].eth[0].mac rxPkOk:count 3
attr interpolationmode none
attr source rxPkOk
attr title "packets received OK, count"
scalar UDPBroadcastNetwork.target[2].eth[0].mac rxPkOk:sum(packetBytes) 438
attr interpolationmode none
attr source rxPkOk
attr title "packets received OK, sum(packetBytes)"
scalar UDPBroadcastNetwork.target[2].eth[0].encap pauseSent:count 0
attr title "pause sent, count"
scalar UDPBroadcastNetwork.target[2].eth[0].encap pauseSent:sum 0
attr title "pause sent, sum"
scalar UDPBroadcastNetwork.target[2].eth[0].encap decapPk:count 3
attr interpolationmode none
attr source decapPk
attr title "packets decapsulated, count"
scalar UDPBroadcastNetwork.target[2].eth[0].encap decapPk:sum(packetBytes) 384
attr interpolationmode none
attr source decapPk
attr title "packets decapsulated, sum(packetBytes)"
scalar UDPBroadcastNetwork.target[2].eth[0].encap encapPk:count 0
attr interpolationmode none
attr source encapPk
attr title "packets encapsulated, count"
scalar UDPBroadcastNetwork.target[2].eth[0].encap encapPk:sum(packetBytes) 0
attr interpolationmode none
attr source encapPk
attr title "packets encapsulated, sum(packetBytes)"
scalar UDPBroadcastNetwork.target[2].ipv4.ip packetDropAddressResolutionFailed:count 0
attr interpolationmode none
attr source packetDropReasonIsAddressResolutionFailed(packetDropped)
attr title "packet drop: address resolution failed, count"
scalar UDPBroadcastNetwork.target[2].ipv4.ip packetDropAddressResolutionFailed:sum(packetBytes) 0
attr interpolationmode none
attr source packetDropReasonIsAddressResolutionFailed(packetDropped)
attr title "packet drop: address resolution failed, sum(packetBytes)"
scalar UDPBroadcastNetwork.target[2].ipv4.ip packetDropHopLimitReached:count 0
attr interpolationmode none
attr source packetDropReasonIsHopLimitReached(packetDropped)
attr title "packet drop: hop limit reached, count"
scalar UDPBroadcastNetwork.target[2].ipv4.ip packetDropHopLimitReached:sum(packetBytes) 0
attr interpolationmode none
attr source packetDropReasonIsHopLimitReached(packetDropped)
attr title "packet drop: hop limit reached, sum(packetBytes)"
scalar UDPBroadcastNetwork.target[2].ipv4.ip packetDropForwardingDisabled:count 0
attr interpolationmode none
attr source packetDropReasonIsForwardingDisabled(packetDropped)
attr title "packet drop: forwarding disabled, count"
scalar UDPBroadcastNetwork.target[2].ipv4.ip packetDropForwardingDisabled:sum(packetBytes) 0
attr interpolationmode none
attr source packetDropReasonIsForwardingDisabled(packetDropped)
attr title "packet drop: forwarding disabled, sum(packetBytes)"
scalar UDPBroadcastNetwork.target[2].ipv4.ip packetDropNoInterfaceFound:count 0
attr interpolationmode none
attr source packetDropReasonIsNoInterfaceFound(packetDropped)
attr title "packet drop: no interface found, count"
scalar UDPBroadcastNetwork.target[2].ipv4.ip packetDropNoInterfaceFound:sum(packetBytes) 0
attr interpolationmode none
attr source packetDropReasonIsNoInterfaceFound(packetDropped)
attr title "packet drop: no interface found, sum(packetBytes)"
scalar UDPBroadcastNetwork.target[2].ipv4.ip packetDropNoRouteFound:count 0
attr interpolationmode none
attr source packetDropReasonIsNoRouteFound(packetDropped)
attr title "packet drop: no route found, count"
scalar UDPBroadcastNetwork.target[2].ipv4.ip packetDropNoRouteFound:sum(packetBytes) 0
attr interpolationmode none
attr source packetDropReasonIsNoRouteFound(packetDropped)
attr title "packet drop: no route found, sum(packetBytes)"
scalar UDPBroadcastNetwork.target[2].ipv4.ip packetDropUndefined:count 0
attr interpolationmode none
attr source packetDropReasonIsUndefined(packetDropped)
attr title "packet drop: undefined, count"
scalar UDPBroadcastNetwork.target[2].ipv4.ip packetDropUndefined:sum(packetBytes) 0
attr interpolationmode none
attr source packetDropReasonIsUndefined(packetDropped)
attr title "packet drop: undefined, sum(packetBytes)"
scalar UDPBroadcastNetwork.target[2].ipv4.arp arpReplySent:count 0
attr source arpReplySent
attr title "ARP replies sent, count"
scalar UDPBroadcastNetwork.target[2].ipv4.arp arpReplySent:sum(packetBytes) 0
attr source arpReplySent
attr title "ARP replies sent, sum(packetBytes)"
scalar UDPBroadcastNetwork.target[2].ipv4.arp arpRequestSent:count 0
attr source arpRequestSent
attr title "ARP request sent, count"
scalar UDPBroadcastNetwork.target[2].ipv4.arp arpRequestSent:sum(packetBytes) 0
attr source arpRequestSent
attr title "ARP request sent, sum(packetBytes)"
scalar UDPBroadcastNetwork.target[2].ipv4.arp arpResolutionFailed:count 0
attr title "ARP failed resolutions, count"
scalar UDPBroadcastNetwork.target[2].ipv4.arp arpResolutionCompleted:count 0
attr title "ARP completed resolutions, count"
scalar UDPBroadcastNetwork.target[2].ipv4.arp arpResolutionInitiated:count 0
attr title "ARP initiated resolutions, count"
scalar UDPBroadcastNetwork.target[2].udp packetReceived:count 3
attr interpolationmode none
attr source packetReceived
attr title "packets received, count"
scalar UDPBroadcastNetwork.target[2].udp packetReceived:sum(packetBytes) 324
attr interpolationmode none
attr source packetReceived
attr title "packets received, sum(packetBytes)"
scalar UDPBroadcastNetwork.target[2].udp packetSent:count 0
attr interpolationmode none
attr source packetSent
attr title "packets sent, count"
scalar UDPBroadcastNetwork.target[2].udp packetSent:sum(packetBytes) 0
attr interpolationmode none
attr source packetSent
attr title "packets sent, sum(packetBytes)"
scalar UDPBroadcastNetwork.target[2].udp passedUpPk:count 3
attr interpolationmode none
attr source packetSentToUpper
attr title "packets passed up, count"
scalar UDPBroadcastNetwork.target[2].udp droppedPkWrongPort:count 0
attr interpolationmode none
attr source packetDropReasonIsNoPortFound(packetDropped)
attr title "packets dropped (wrong port), count"
scalar UDPBroadcastNetwork.target[2].udp droppedPkBadChecksum:count 0
attr interpolationmode none
attr source packetDropReasonIsIncorrectlyReceived(packetDropped)
attr title "packets dropped (checksum error), count"
scalar UDPBroadcastNetwork.target[2].app[0] packetReceived:count 3
attr interpolationmode none
attr source packetReceived
attr title "packets received, count"
scalar UDPBroadcastNetwork.target[2].app[0] packetReceived:sum(packetBytes) 300
attr interpolationmode none
attr source packetReceived
attr title "packets received, sum(packetBytes)"
statistic UDPBroadcastNetwork.target[2].app[0] endToEndDelay:histogram
field count 3
field mean 0.0004628
field stddev 0
field min 0.0004628
field max 0.0004628
field sum 0.0013884
field sqrsum 6.4255152e-007
attr interpolationmode none
attr source dataAge(packetReceived)
attr title "end-to-end delay, histogram"
attr unit s
bin	-inf	0
bin	0	3
bin	0.01	0
bin	0.02	0
bin	0.03	0
bin	0.04	0
bin	0.05	0
bin	0.06	0
bin	0.07	0
bin	0.08	0
bin	0.09	0
bin	0.1	0
bin	0.11	0
bin	0.12	0
bin	0.13	0
bin	0.14	0
bin	0.15	0
bin	0.16	0
bin	0.17	0
bin	0.18	0
bin	0.19	0
bin	0.2	0
bin	0.21	0
bin	0.22	0
bin	0.23	0
bin	0.24	0
bin	0.25	0
bin	0.26	0
bin	0.27	0
bin	0.28	0
bin	0.29	0
bin	0.3	0
bin	0.31	0
bin	0.32	0
bin	0.33	0
bin	0.34	0
bin	0.35	0
bin	0.36	0
bin	0.37	0
bin	0.38	0
bin	0.39	0
bin	0.4	0
bin	0.41	0
bin	0.42	0
bin	0.43	0
bin	0.44	0
bin	0.45	0
bin	0.46	0
bin	0.47	0
bin	0.48	0
bin	0.49	0
bin	0.5	0
bin	0.51	0
scalar UDPBroadcastNetwork.client.lo[0].lo rcvdPkFromHl:count 0
attr interpolationmode none
attr source packetReceivedFromUpper
attr title "packets received from higher layer, count"
scalar UDPBroadcastNetwork.client.lo[0].lo rcvdPkFromHl:sum(packetBytes) 0
attr interpolationmode none
attr source packetReceivedFromUpper
attr title "packets received from higher layer, sum(packetBytes)"
scalar UDPBroadcastNetwork.client.lo[0].lo passedUpPk:count 0
attr interpolationmode none
attr source packetSentToUpper
attr title "packets passed to higher layer, count"
scalar UDPBroadcastNetwork.client.lo[0].lo passedUpPk:sum(packetBytes) 0
attr interpolationmode none
attr source packetSentToUpper
attr title "packets passed to higher layer, sum(packetBytes)"
scalar UDPBroadcastNetwork.client.ppp[0].ppp.queue packetPopped:count 4
attr interpolationmode none
attr title "packet popped, count"
scalar UDPBroadcastNetwork.client.ppp[0].ppp.queue packetPopped:sum(packetBytes) 512
attr interpolationmode none
attr title "packet popped, sum(packetBytes)"
statistic UDPBroadcastNetwork.client.ppp[0].ppp.queue queueingTime:histogram
field count 4
field mean 0
field stddev 0
field min 0
field max 0
field sum 0
field sqrsum 0
attr interpolationmode none
attr source queueingTime(packetPopped)
attr title "queueing times, histogram"
attr unit s
bin	-inf	0
bin	-0.5	0
bin	-0.48	0
bin	-0.46	0
bin	-0.44	0
bin	-0.42	0
bin	-0.4	0
bin	-0.38	0
bin	-0.36	0
bin	-0.34	0
bin	-0.32	0
bin	-0.3	0
bin	-0.28	0
bin	-0.26	0
bin	-0.24	0
bin	-0.22	0
bin	-0.2	0
bin	-0.18	0
bin	-0.16	0
bin	-0.14	0
bin	-0.12	0
bin	-0.1	0
bin	-0.08	0
bin	-0.06	0
bin	-0.04	0
bin	-0.02	0
bin	0	4
bin	0.02	0
bin	0.04	0
bin	0.06	0
bin	0.08	0
bin	0.1	0
bin	0.12	0
bin	0.14	0
bin	0.16	0
bin	0.18	0
bin	0.2	0
bin	0.22	0
bin	0.24	0
bin	0.26	0
bin	0.28	0
bin	0.3	0
bin	0.32	0
bin	0.34	0
bin	0.36	0
bin	0.38	0
bin	0.4	0
bin	0.42	0
bin	0.44	0
bin	0.46	0
bin	0.48	0
bin	0.5	0
scalar UDPBroadcastNetwork.client.ppp[0].ppp.queue queueLength:max 1
attr interpolationmode sample-hold
attr source "count(packetPushed) - count(packetPopped) - count(packetRemoved) - count(packetDropped)"
attr title "queue length, max"
scalar UDPBroadcastNetwork.client.ppp[0].ppp.queue queueLength:timeavg 0
attr interpolationmode sample-hold
attr source "count(packetPushed) - count(packetPopped) - count(packetRemoved) - count(packetDropped)"
attr title "queue length, timeavg"
scalar UDPBroadcastNetwork.client.ppp[0].ppp.queue packetPushed:count 4
attr interpolationmode none
attr title "packet pushed, count"
scalar UDPBroadcastNetwork.client.ppp[0].ppp.queue packetPushed:sum(packetBytes) 512
attr interpolationmode none
attr title "packet pushed, sum(packetBytes)"
scalar UDPBroadcastNetwork.client.ppp[0].ppp.queue packetDropQueueOverflow:count 0
attr interpolationmode none
attr source packetDropReasonIsQueueOverflow(packetDropped)
attr title "packet drops: queue overflow, count"
scalar UDPBroadcastNetwork.client.ppp[0].ppp.queue packetDropQueueOverflow:sum(packetBytes) 0
attr interpolationmode none
attr source packetDropReasonIsQueueOverflow(packetDropped)
attr title "packet drops: queue overflow, sum(packetBytes)"
scalar UDPBroadcastNetwork.client.ppp[0].ppp.queue packetRemoved:count 0
attr interpolationmode none
attr title "packets removed, count"
scalar UDPBroadcastNetwork.client.ppp[0].ppp.queue packetRemoved:sum(packetBytes) 0
attr interpolationmode none
attr title "packets removed, sum(packetBytes)"
scalar UDPBroadcastNetwork.client.ppp[0].ppp txPk:count 4
attr interpolationmode none
attr source packetSentToLower
attr title "packets transmitted, count"
scalar UDPBroadcastNetwork.client.ppp[0].ppp txPk:sum(packetBytes) 540
attr interpolationmode none
attr source packetSentToLower
attr title "packets transmitted, sum(packetBytes)"
scalar UDPBroadcastNetwork.client.ppp[0].ppp rcvdPkFromHl:count 4
attr interpolationmode none
attr source packetReceivedFromUpper
attr title "packets received from higher layer, count"
scalar UDPBroadcastNetwork.client.ppp[0].ppp rcvdPkFromHl:sum(packetBytes) 512
attr interpolationmode none
attr source packetReceivedFromUpper
attr title "packets received from higher layer, sum(packetBytes)"
scalar UDPBroadcastNetwork.client.ppp[0].ppp passedUpPk:count 0
attr interpolationmode none
attr source packetSentToUpper
attr title "packets passed to higher layer, count"
scalar UDPBroadcastNetwork.client.ppp[0].ppp passedUpPk:sum(packetBytes) 0
attr interpolationmode none
attr source packetSentToUpper
attr title "packets passed to higher layer, sum(packetBytes)"
scalar UDPBroadcastNetwork.client.ppp[0].ppp packetDropIncorrectlyReceived:count 0
attr interpolationmode none
attr source packetDropReasonIsIncorrectlyReceived(packetDropped)
attr title "packet drop: incorrectly received, count"
scalar UDPBroadcastNetwork.client.ppp[0].ppp packetDropIncorrectlyReceived:sum(packetBytes) 0
attr interpolationmode none
attr source packetDropReasonIsIncorrectlyReceived(packetDropped)
attr title "packet drop: incorrectly received, sum(packetBytes)"
scalar UDPBroadcastNetwork.client.ppp[0].ppp packetDropInterfaceDown:count 0
attr interpolationmode none
attr source packetDropReasonIsInterfaceDown(packetDropped)
attr title "packet drop: interface down, count"
scalar UDPBroadcastNetwork.client.ppp[0].ppp packetDropInterfaceDown:sum(packetBytes) 0
attr interpolationmode none
attr source packetDropReasonIsInterfaceDown(packetDropped)
attr title "packet drop: interface down, sum(packetBytes)"
scalar UDPBroadcastNetwork.client.ppp[0].ppp rxPkOk:count 0
attr interpolationmode none
attr source rxPkOk
attr title "packets received OK, count"
scalar UDPBroadcastNetwork.client.ppp[0].ppp rxPkOk:sum(packetBytes) 0
attr interpolationmode none
attr source rxPkOk
attr title "packets received OK, sum(packetBytes)"
scalar UDPBroadcastNetwork.client.ppp[0].ppp transmissionState:timeavg 3.3230216330574e-005
attr interpolationmode sample-hold
attr source transmissionStateChanged
attr title "tx state, timeavg"
scalar UDPBroadcastNetwork.client.ipv4.ip packetDropAddressResolutionFailed:count 0
attr interpolationmode none
attr source packetDropReasonIsAddressResolutionFailed(packetDropped)
attr title "packet drop: address resolution failed, count"
scalar UDPBroadcastNetwork.client.ipv4.ip packetDropAddressResolutionFailed:sum(packetBytes) 0
attr interpolationmode none
attr source packetDropReasonIsAddressResolutionFailed(packetDropped)
attr title "packet drop: address resolution failed, sum(packetBytes)"
scalar UDPBroadcastNetwork.client.ipv4.ip packetDropHopLimitReached:count 0
attr interpolationmode none
attr source packetDropReasonIsHopLimitReached(packetDropped)
attr title "packet drop: hop limit reached, count"
scalar UDPBroadcastNetwork.client.ipv4.ip packetDropHopLimitReached:sum(packetBytes) 0
attr interpolationmode none
attr source packetDropReasonIsHopLimitReached(packetDropped)
attr title "packet drop: hop limit reached, sum(packetBytes)"
scalar UDPBroadcastNetwork.client.ipv4.ip packetDropForwardingDisabled:count 0
attr interpolationmode none
attr source packetDropReasonIsForwardingDisabled(packetDropped)
attr title "packet drop: forwarding disabled, count"
scalar UDPBroadcastNetwork.client.ipv4.ip packetDropForwardingDisabled:sum(packetBytes) 0
attr interpolationmode none
attr source packetDropReasonIsForwardingDisabled(packetDropped)
attr title "packet drop: forwarding disabled, sum(packetBytes)"
scalar UDPBroadcastNetwork.client.ipv4.ip packetDropNoInterfaceFound:count 0
attr interpolationmode none
attr source packetDropReasonIsNoInterfaceFound(packetDropped)
attr title "packet drop: no interface found, count"
scalar UDPBroadcastNetwork.client.ipv4.ip packetDropNoInterfaceFound:sum(packetBytes) 0
attr interpolationmode none
attr source packetDropReasonIsNoInterfaceFound(packetDropped)
attr title "packet drop: no interface found, sum(packetBytes)"
scalar UDPBroadcastNetwork.client.ipv4.ip packetDropNoRouteFound:count 0
attr interpolationmode none
attr source packetDropReasonIsNoRouteFound(packetDropped)
attr title "packet drop: no route found, count"
scalar UDPBroadcastNetwork.client.ipv4.ip packetDropNoRouteFound:sum(packetBytes) 0
attr interpolationmode none
attr source packetDropReasonIsNoRouteFound(packetDropped)
attr title "packet drop: no route found, sum(packetBytes)"
scalar UDPBroadcastNetwork.client.ipv4.ip packetDropUndefined:count 0
attr interpolationmode none
attr source packetDropReasonIsUndefined(packetDropped)
attr title "packet drop: undefined, count"
scalar UDPBroadcastNetwork.client.ipv4.ip packetDropUndefined:sum(packetBytes) 0
attr interpolationmode none
attr source packetDropReasonIsUndefined(packetDropped)
attr title "packet drop: undefined, sum(packetBytes)"
scalar UDPBroadcastNetwork.client.ipv4.arp arpReplySent:count 0
attr source arpReplySent
attr title "ARP replies sent, count"
scalar UDPBroadcastNetwork.client.ipv4.arp arpReplySent:sum(packetBytes) 0
attr source arpReplySent
attr title "ARP replies sent, sum(packetBytes)"
scalar UDPBroadcastNetwork.client.ipv4.arp arpRequestSent:count 0
attr source arpRequestSent
attr title "ARP request sent, count"
scalar UDPBroadcastNetwork.client.ipv4.arp arpRequestSent:sum(packetBytes) 0
attr source arpRequestSent
attr title "ARP request sent, sum(packetBytes)"
scalar UDPBroadcastNetwork.client.ipv4.arp arpResolutionFailed:count 0
attr title "ARP failed resolutions, count"
scalar UDPBroadcastNetwork.client.ipv4.arp arpResolutionCompleted:count 0
attr title "ARP completed resolutions, count"
scalar UDPBroadcastNetwork.client.ipv4.arp arpResolutionInitiated:count 0
attr title "ARP initiated resolutions, count"
scalar UDPBroadcastNetwork.client.udp packetReceived:count 0
attr interpolationmode none
attr source packetReceived
attr title "packets received, count"
scalar UDPBroadcastNetwork.client.udp packetReceived:sum(packetBytes) 0
attr interpolationmode none
attr source packetReceived
attr title "packets received, sum(packetBytes)"
scalar UDPBroadcastNetwork.client.udp packetSent:count 4
attr interpolationmode none
attr source packetSent
attr title "packets sent, count"
scalar UDPBroadcastNetwork.client.udp packetSent:sum(packetBytes) 432
attr interpolationmode none
attr source packetSent
attr title "packets sent, sum(packetBytes)"
scalar UDPBroadcastNetwork.client.udp passedUpPk:count 0
attr interpolationmode none
attr source packetSentToUpper
attr title "packets passed up, count"
scalar UDPBroadcastNetwork.client.udp droppedPkWrongPort:count 0
attr interpolationmode none
attr source packetDropReasonIsNoPortFound(packetDropped)
attr title "packets dropped (wrong port), count"
scalar UDPBroadcastNetwork.client.udp droppedPkBadChecksum:count 0
attr interpolationmode none
attr source packetDropReasonIsIncorrectlyReceived(packetDropped)
attr title "packets dropped (checksum error), count"
scalar UDPBroadcastNetwork.client.app[0] "packets sent" 4
scalar UDPBroadcastNetwork.client.app[0] "packets received" 0
scalar UDPBroadcastNetwork.client.app[0] packetReceived:count 0
attr interpolationmode none
attr source packetReceived
attr title "packets received, count"
scalar UDPBroadcastNetwork.client.app[0] packetReceived:sum(packetBytes) 0
attr interpolationmode none
attr source packetReceived
attr title "packets received, sum(packetBytes)"
statistic UDPBroadcastNetwork.client.app[0] rcvdPkLifetime:stats
field count 0
field mean nan
field stddev nan
field min nan
field max nan
field sum 0
field sqrsum 0
attr interpolationmode none
attr source dataAge(packetReceived)
attr title "received packet lifetime, stats"
attr unit s
scalar UDPBroadcastNetwork.client.app[0] packetSent:count 4
attr interpolationmode none
attr source packetSent
attr title "packets sent, count"
scalar UDPBroadcastNetwork.client.app[0] packetSent:sum(packetBytes) 400
attr interpolationmode none
attr source packetSent
attr title "packets sent, sum(packetBytes)"
scalar UDPBroadcastNetwork.R1.lo[0].lo rcvdPkFromHl:count 0
attr interpolationmode none
attr source packetReceivedFromUpper
attr title "packets received from higher layer, count"
scalar UDPBroadcastNetwork.R1.lo[0].lo rcvdPkFromHl:sum(packetBytes) 0
attr interpolationmode none
attr source packetReceivedFromUpper
attr title "packets received from higher layer, sum(packetBytes)"
scalar UDPBroadcastNetwork.R1.lo[0].lo passedUpPk:count 0
attr interpolationmode none
attr source packetSentToUpper
attr title "packets passed to higher layer, count"
scalar UDPBroadcastNetwork.R1.lo[0].lo passedUpPk:sum(packetBytes) 0
attr interpolationmode none
attr source packetSentToUpper
attr title "packets passed to higher layer, sum(packetBytes)"
scalar UDPBroadcastNetwork.R1.ppp[0].ppp.queue packetPopped:count 0
attr interpolationmode none
attr title "packet popped, count"
scalar UDPBroadcastNetwork.R1.ppp[0].ppp.queue packetPopped:sum(packetBytes) 0
attr interpolationmode none
attr title "packet popped, sum(packetBytes)"
statistic UDPBroadcastNetwork.R1.ppp[0].ppp.queue queueingTime:histogram
field count 0
field mean nan
field stddev nan
field min nan
field max nan
field sum 0
field sqrsum 0
attr interpolationmode none
attr source queueingTime(packetPopped)
attr title "queueing times, histogram"
attr unit s
bin	-inf	0
bin	0	0
bin	1	0
scalar UDPBroadcastNetwork.R1.ppp[0].ppp.queue queueLength:max nan
attr interpolationmode sample-hold
attr source "count(packetPushed) - count(packetPopped) - count(packetRemoved) - count(packetDropped)"
attr title "queue length, max"
scalar UDPBroadcastNetwork.R1.ppp[0].ppp.queue queueLength:timeavg nan
attr interpolationmode sample-hold
attr source "count(packetPushed) - count(packetPopped) - count(packetRemoved) - count(packetDropped)"
attr title "queue length, timeavg"
scalar UDPBroadcastNetwork.R1.ppp[0].ppp.queue packetPushed:count 0
attr interpolationmode none
attr title "packet pushed, count"
scalar UDPBroadcastNetwork.R1.ppp[0].ppp.queue packetPushed:sum(packetBytes) 0
attr interpolationmode none
attr title "packet pushed, sum(packetBytes)"
scalar UDPBroadcastNetwork.R1.ppp[0].ppp.queue packetDropQueueOverflow:count 0
attr interpolationmode none
attr source packetDropReasonIsQueueOverflow(packetDropped)
attr title "packet drops: queue overflow, count"
scalar UDPBroadcastNetwork.R1.ppp[0].ppp.queue packetDropQueueOverflow:sum(packetBytes) 0
attr interpolationmode none
attr source packetDropReasonIsQueueOverflow(packetDropped)
attr title "packet drops: queue overflow, sum(packetBytes)"
scalar UDPBroadcastNetwork.R1.ppp[0].ppp.queue packetRemoved:count 0
attr interpolationmode none
attr title "packets removed, count"
scalar UDPBroadcastNetwork.R1.ppp[0].ppp.queue packetRemoved:sum(packetBytes) 0
attr interpolationmode none
attr title "packets removed, sum(packetBytes)"
scalar UDPBroadcastNetwork.R1.ppp[0].ppp txPk:count 0
attr interpolationmode none
attr source packetSentToLower
attr title "packets transmitted, count"
scalar UDPBroadcastNetwork.R1.ppp[0].ppp txPk:sum(packetBytes) 0
attr interpolationmode none
attr source packetSentToLower
attr title "packets transmitted, sum(packetBytes)"
scalar UDPBroadcastNetwork.R1.ppp[0].ppp rcvdPkFromHl:count 0
attr interpolationmode none
attr source packetReceivedFromUpper
attr title "packets received from higher layer, count"
scalar UDPBroadcastNetwork.R1.ppp[0].ppp rcvdPkFromHl:sum(packetBytes) 0
attr interpolationmode none
attr source packetReceivedFromUpper
attr title "packets received from higher layer, sum(packetBytes)"
scalar UDPBroadcastNetwork.R1.ppp[0].ppp passedUpPk:count 4
attr interpolationmode none
attr source packetSentToUpper
attr title "packets passed to higher layer, count"
scalar UDPBroadcastNetwork.R1.ppp[0].ppp passedUpPk:sum(packetBytes) 512
attr interpolationmode none
attr source packetSentToUpper
attr title "packets passed to higher layer, sum(packetBytes)"
scalar UDPBroadcastNetwork.R1.ppp[0].ppp packetDropIncorrectlyReceived:count 0
attr interpolationmode none
attr source packetDropReasonIsIncorrectlyReceived(packetDropped)
attr title "packet drop: incorrectly received, count"
scalar UDPBroadcastNetwork.R1.ppp[0].ppp packetDropIncorrectlyReceived:sum(packetBytes) 0
attr interpolationmode none
attr source packetDropReasonIsIncorrectlyReceived(packetDropped)
attr title "packet drop: incorrectly received, sum(packetBytes)"
scalar UDPBroadcastNetwork.R1.ppp[0].ppp packetDropInterfaceDown:count 0
attr interpolationmode none
attr source packetDropReasonIsInterfaceDown(packetDropped)
attr title "packet drop: interface down, count"
scalar UDPBroadcastNetwork.R1.ppp[0].ppp packetDropInterfaceDown:sum(packetBytes) 0
attr interpolationmode none
attr source packetDropReasonIsInterfaceDown(packetDropped)
attr title "packet drop: interface down, sum(packetBytes)"
scalar UDPBroadcastNetwork.R1.ppp[0].ppp rxPkOk:count 4
attr interpolationmode none
attr source rxPkOk
attr title "packets received OK, count"
scalar UDPBroadcastNetwork.R1.ppp[0].ppp rxPkOk:sum(packetBytes) 540
attr interpolationmode none
attr source rxPkOk
attr title "packets received OK, sum(packetBytes)"
scalar UDPBroadcastNetwork.R1.ppp[0].ppp transmissionState:timeavg 0
attr interpolationmode sample-hold
attr source transmissionStateChanged
attr title "tx state, timeavg"
scalar UDPBroadcastNetwork.R1.ppp[1].ppp.queue packetPopped:count 4
attr interpolationmode none
attr title "packet popped, count"
scalar UDPBroadcastNetwork.R1.ppp[1].ppp.queue packetPopped:sum(packetBytes) 512
attr interpolationmode none
attr title "packet popped, sum(packetBytes)"
statistic UDPBroadcastNetwork.R1.ppp[1].ppp.queue queueingTime:histogram
field count 4
field mean 0
field stddev 0
field min 0
field max 0
field sum 0
field sqrsum 0
attr interpolationmode none
attr source queueingTime(packetPopped)
attr title "queueing times, histogram"
attr unit s
bin	-inf	0
bin	-0.5	0
bin	-0.48	0
bin	-0.46	0
bin	-0.44	0
bin	-0.42	0
bin	-0.4	0
bin	-0.38	0
bin	-0.36	0
bin	-0.34	0
bin	-0.32	0
bin	-0.3	0
bin	-0.28	0
bin	-0.26	0
bin	-0.24	0
bin	-0.22	0
bin	-0.2	0
bin	-0.18	0
bin	-0.16	0
bin	-0.14	0
bin	-0.12	0
bin	-0.1	0
bin	-0.08	0
bin	-0.06	0
bin	-0.04	0
bin	-0.02	0
bin	0	4
bin	0.02	0
bin	0.04	0
bin	0.06	0
bin	0.08	0
bin	0.1	0
bin	0.12	0
bin	0.14	0
bin	0.16	0
bin	0.18	0
bin	0.2	0
bin	0.22	0
bin	0.24	0
bin	0.26	0
bin	0.28	0
bin	0.3	0
bin	0.32	0
bin	0.34	0
bin	0.36	0
bin	0.38	0
bin	0.4	0
bin	0.42	0
bin	0.44	0
bin	0.46	0
bin	0.48	0
bin	0.5	0
scalar UDPBroadcastNetwork.R1.ppp[1].ppp.queue queueLength:max 1
attr interpolationmode sample-hold
attr source "count(packetPushed) - count(packetPopped) - count(packetRemoved) - count(packetDropped)"
attr title "queue length, max"
scalar UDPBroadcastNetwork.R1.ppp[1].ppp.queue queueLength:timeavg 0
attr interpolationmode sample-hold
attr source "count(packetPushed) - count(packetPopped) - count(packetRemoved) - count(packetDropped)"
attr title "queue length, timeavg"
scalar UDPBroadcastNetwork.R1.ppp[1].ppp.queue packetPushed:count 4
attr interpolationmode none
attr title "packet pushed, count"
scalar UDPBroadcastNetwork.R1.ppp[1].ppp.queue packetPushed:sum(packetBytes) 512
attr interpolationmode none
attr title "packet pushed, sum(packetBytes)"
scalar UDPBroadcastNetwork.R1.ppp[1].ppp.queue packetDropQueueOverflow:count 0
attr interpolationmode none
attr source packetDropReasonIsQueueOverflow(packetDropped)
attr title "packet drops: queue overflow, count"
scalar UDPBroadcastNetwork.R1.ppp[1].ppp.queue packetDropQueueOverflow:sum(packetBytes) 0
attr interpolationmode none
attr source packetDropReasonIsQueueOverflow(packetDropped)
attr title "packet drops: queue overflow, sum(packetBytes)"
scalar UDPBroadcastNetwork.R1.ppp[1].ppp.queue packetRemoved:count 0
attr interpolationmode none
attr title "packets removed, count"
scalar UDPBroadcastNetwork.R1.ppp[1].ppp.queue packetRemoved:sum(packetBytes) 0
attr interpolationmode none
attr title "packets removed, sum(packetBytes)"
scalar UDPBroadcastNetwork.R1.ppp[1].ppp txPk:count 4
attr interpolationmode none
attr source packetSentToLower
attr title "packets transmitted, count"
scalar UDPBroadcastNetwork.R1.ppp[1].ppp txPk:sum(packetBytes) 540
attr interpolationmode none
attr source packetSentToLower
attr title "packets transmitted, sum(packetBytes)"
scalar UDPBroadcastNetwork.R1.ppp[1].ppp rcvdPkFromHl:count 4
attr interpolationmode none
attr source packetReceivedFromUpper
attr title "packets received from higher layer, count"
scalar UDPBroadcastNetwork.R1.ppp[1].ppp rcvdPkFromHl:sum(packetBytes) 512
attr interpolationmode none
attr source packetReceivedFromUpper
attr title "packets received from higher layer, sum(packetBytes)"
scalar UDPBroadcastNetwork.R1.ppp[1].ppp passedUpPk:count 0
attr interpolationmode none
attr source packetSentToUpper
attr title "packets passed to higher layer, count"
scalar UDPBroadcastNetwork.R1.ppp[1].ppp passedUpPk:sum(packetBytes) 0
attr interpolationmode none
attr source packetSentToUpper
attr title "packets passed to higher layer, sum(packetBytes)"
scalar UDPBroadcastNetwork.R1.ppp[1].ppp packetDropIncorrectlyReceived:count 0
attr interpolationmode none
attr source packetDropReasonIsIncorrectlyReceived(packetDropped)
attr title "packet drop: incorrectly received, count"
scalar UDPBroadcastNetwork.R1.ppp[1].ppp packetDropIncorrectlyReceived:sum(packetBytes) 0
attr interpolationmode none
attr source packetDropReasonIsIncorrectlyReceived(packetDropped)
attr title "packet drop: incorrectly received, sum(packetBytes)"
scalar UDPBroadcastNetwork.R1.ppp[1].ppp packetDropInterfaceDown:count 0
attr interpolationmode none
attr source packetDropReasonIsInterfaceDown(packetDropped)
attr title "packet drop: interface down, count"
scalar UDPBroadcastNetwork.R1.ppp[1].ppp packetDropInterfaceDown:sum(packetBytes) 0
attr interpolationmode none
attr source packetDropReasonIsInterfaceDown(packetDropped)
attr title "packet drop: interface down, sum(packetBytes)"
scalar UDPBroadcastNetwork.R1.ppp[1].ppp rxPkOk:count 0
attr interpolationmode none
attr source rxPkOk
attr title "packets received OK, count"
scalar UDPBroadcastNetwork.R1.ppp[1].ppp rxPkOk:sum(packetBytes) 0
attr interpolationmode none
attr source rxPkOk
attr title "packets received OK, sum(packetBytes)"
scalar UDPBroadcastNetwork.R1.ppp[1].ppp transmissionState:timeavg 3.3230216330574e-005
attr interpolationmode sample-hold
attr source transmissionStateChanged
attr title "tx state, timeavg"
scalar UDPBroadcastNetwork.R1.ipv4.ip packetDropAddressResolutionFailed:count 0
attr interpolationmode none
attr source packetDropReasonIsAddressResolutionFailed(packetDropped)
attr title "packet drop: address resolution failed, count"
scalar UDPBroadcastNetwork.R1.ipv4.ip packetDropAddressResolutionFailed:sum(packetBytes) 0
attr interpolationmode none
attr source packetDropReasonIsAddressResolutionFailed(packetDropped)
attr title "packet drop: address resolution failed, sum(packetBytes)"
scalar UDPBroadcastNetwork.R1.ipv4.ip packetDropHopLimitReached:count 0
attr interpolationmode none
attr source packetDropReasonIsHopLimitReached(packetDropped)
attr title "packet drop: hop limit reached, count"
scalar UDPBroadcastNetwork.R1.ipv4.ip packetDropHopLimitReached:sum(packetBytes) 0
attr interpolationmode none
attr source packetDropReasonIsHopLimitReached(packetDropped)
attr title "packet drop: hop limit reached, sum(packetBytes)"
scalar UDPBroadcastNetwork.R1.ipv4.ip packetDropForwardingDisabled:count 0
attr interpolationmode none
attr source packetDropReasonIsForwardingDisabled(packetDropped)
attr title "packet drop: forwarding disabled, count"
scalar UDPBroadcastNetwork.R1.ipv4.ip packetDropForwardingDisabled:sum(packetBytes) 0
attr interpolationmode none
attr source packetDropReasonIsForwardingDisabled(packetDropped)
attr title "packet drop: forwarding disabled, sum(packetBytes)"
scalar UDPBroadcastNetwork.R1.ipv4.ip packetDropNoInterfaceFound:count 0
attr interpolationmode none
attr source packetDropReasonIsNoInterfaceFound(packetDropped)
attr title "packet drop: no interface found, count"
scalar UDPBroadcastNetwork.R1.ipv4.ip packetDropNoInterfaceFound:sum(packetBytes) 0
attr interpolationmode none
attr source packetDropReasonIsNoInterfaceFound(packetDropped)
attr title "packet drop: no interface found, sum(packetBytes)"
scalar UDPBroadcastNetwork.R1.ipv4.ip packetDropNoRouteFound:count 0
attr interpolationmode none
attr source packetDropReasonIsNoRouteFound(packetDropped)
attr title "packet drop: no route found, count"
scalar UDPBroadcastNetwork.R1.ipv4.ip packetDropNoRouteFound:sum(packetBytes) 0
attr interpolationmode none
attr source packetDropReasonIsNoRouteFound(packetDropped)
attr title "packet drop: no route found, sum(packetBytes)"
scalar UDPBroadcastNetwork.R1.ipv4.ip packetDropUndefined:count 0
attr interpolationmode none
attr source packetDropReasonIsUndefined(packetDropped)
attr title "packet drop: undefined, count"
scalar UDPBroadcastNetwork.R1.ipv4.ip packetDropUndefined:sum(packetBytes) 0
attr interpolationmode none
attr source packetDropReasonIsUndefined(packetDropped)
attr title "packet drop: undefined, sum(packetBytes)"
scalar UDPBroadcastNetwork.R1.ipv4.arp arpReplySent:count 0
attr source arpReplySent
attr title "ARP replies sent, count"
scalar UDPBroadcastNetwork.R1.ipv4.arp arpReplySent:sum(packetBytes) 0
attr source arpReplySent
attr title "ARP replies sent, sum(packetBytes)"
scalar UDPBroadcastNetwork.R1.ipv4.arp arpRequestSent:count 0
attr source arpRequestSent
attr title "ARP request sent, count"
scalar UDPBroadcastNetwork.R1.ipv4.arp arpRequestSent:sum(packetBytes) 0
attr source arpRequestSent
attr title "ARP request sent, sum(packetBytes)"
scalar UDPBroadcastNetwork.R1.ipv4.arp arpResolutionFailed:count 0
attr title "ARP failed resolutions, count"
scalar UDPBroadcastNetwork.R1.ipv4.arp arpResolutionCompleted:count 0
attr title "ARP completed resolutions, count"
scalar UDPBroadcastNetwork.R1.ipv4.arp arpResolutionInitiated:count 0
attr title "ARP initiated resolutions, count"
scalar UDPBroadcastNetwork.R2.lo[0].lo rcvdPkFromHl:count 0
attr interpolationmode none
attr source packetReceivedFromUpper
attr title "packets received from higher layer, count"
scalar UDPBroadcastNetwork.R2.lo[0].lo rcvdPkFromHl:sum(packetBytes) 0
attr interpolationmode none
attr source packetReceivedFromUpper
attr title "packets received from higher layer, sum(packetBytes)"
scalar UDPBroadcastNetwork.R2.lo[0].lo passedUpPk:count 0
attr interpolationmode none
attr source packetSentToUpper
attr title "packets passed to higher layer, count"
scalar UDPBroadcastNetwork.R2.lo[0].lo passedUpPk:sum(packetBytes) 0
attr interpolationmode none
attr source packetSentToUpper
attr title "packets passed to higher layer, sum(packetBytes)"
scalar UDPBroadcastNetwork.R2.ppp[0].ppp.queue packetPopped:count 0
attr interpolationmode none
attr title "packet popped, count"
scalar UDPBroadcastNetwork.R2.ppp[0].ppp.queue packetPopped:sum(packetBytes) 0
attr interpolationmode none
attr title "packet popped, sum(packetBytes)"
statistic UDPBroadcastNetwork.R2.ppp[0].ppp.queue queueingTime:histogram
field count 0
field mean nan
field stddev nan
field min nan
field max nan
field sum 0
field sqrsum 0
attr interpolationmode none
attr source queueingTime(packetPopped)
attr title "queueing times, histogram"
attr unit s
bin	-inf	0
bin	0	0
bin	1	0
scalar UDPBroadcastNetwork.R2.ppp[0].ppp.queue queueLength:max nan
attr interpolationmode sample-hold
attr source "count(packetPushed) - count(packetPopped) - count(packetRemoved) - count(packetDropped)"
attr title "queue length, max"
scalar UDPBroadcastNetwork.R2.ppp[0].ppp.queue queueLength:timeavg nan
attr interpolationmode sample-hold
attr source "count(packetPushed) - count(packetPopped) - count(packetRemoved) - count(packetDropped)"
attr title "queue length, timeavg"
scalar UDPBroadcastNetwork.R2.ppp[0].ppp.queue packetPushed:count 0
attr interpolationmode none
attr title "packet pushed, count"
scalar UDPBroadcastNetwork.R2.ppp[0].ppp.queue packetPushed:sum(packetBytes) 0
attr interpolationmode none
attr title "packet pushed, sum(packetBytes)"
scalar UDPBroadcastNetwork.R2.ppp[0].ppp.queue packetDropQueueOverflow:count 0
attr interpolationmode none
attr source packetDropReasonIsQueueOverflow(packetDropped)
attr title "packet drops: queue overflow, count"
scalar UDPBroadcastNetwork.R2.ppp[0].ppp.queue packetDropQueueOverflow:sum(packetBytes) 0
attr interpolationmode none
attr source packetDropReasonIsQueueOverflow(packetDropped)
attr title "packet drops: queue overflow, sum(packetBytes)"
scalar UDPBroadcastNetwork.R2.ppp[0].ppp.queue packetRemoved:count 0
attr interpolationmode none
attr title "packets removed, count"
scalar UDPBroadcastNetwork.R2.ppp[0].ppp.queue packetRemoved:sum(packetBytes) 0
attr interpolationmode none
attr title "packets removed, sum(packetBytes)"
scalar UDPBroadcastNetwork.R2.ppp[0].ppp txPk:count 0
attr interpolationmode none
attr source packetSentToLower
attr title "packets transmitted, count"
scalar UDPBroadcastNetwork.R2.ppp[0].ppp txPk:sum(packetBytes) 0
attr interpolationmode none
attr source packetSentToLower
attr title "packets transmitted, sum(packetBytes)"
scalar UDPBroadcastNetwork.R2.ppp[0].ppp rcvdPkFromHl:count 0
attr interpolationmode none
attr source packetReceivedFromUpper
attr title "packets received from higher layer, count"
scalar UDPBroadcastNetwork.R2.ppp[0].ppp rcvdPkFromHl:sum(packetBytes) 0
attr interpolationmode none
attr source packetReceivedFromUpper
attr title "packets received from higher layer, sum(packetBytes)"
scalar UDPBroadcastNetwork.R2.ppp[0].ppp passedUpPk:count 4
attr interpolationmode none
attr source packetSentToUpper
attr title "packets passed to higher layer, count"
scalar UDPBroadcastNetwork.R2.ppp[0].ppp passedUpPk:sum(packetBytes) 512
attr interpolationmode none
attr source packetSentToUpper
attr title "packets passed to higher layer, sum(packetBytes)"
scalar UDPBroadcastNetwork.R2.ppp[0].ppp packetDropIncorrectlyReceived:count 0
attr interpolationmode none
attr source packetDropReasonIsIncorrectlyReceived(packetDropped)
attr title "packet drop: incorrectly received, count"
scalar UDPBroadcastNetwork.R2.ppp[0].ppp packetDropIncorrectlyReceived:sum(packetBytes) 0
attr interpolationmode none
attr source packetDropReasonIsIncorrectlyReceived(packetDropped)
attr title "packet drop: incorrectly received, sum(packetBytes)"
scalar UDPBroadcastNetwork.R2.ppp[0].ppp packetDropInterfaceDown:count 0
attr interpolationmode none
attr source packetDropReasonIsInterfaceDown(packetDropped)
attr title "packet drop: interface down, count"
scalar UDPBroadcastNetwork.R2.ppp[0].ppp packetDropInterfaceDown:sum(packetBytes) 0
attr interpolationmode none
attr source packetDropReasonIsInterfaceDown(packetDropped)
attr title "packet drop: interface down, sum(packetBytes)"
scalar UDPBroadcastNetwork.R2.ppp[0].ppp rxPkOk:count 4
attr interpolationmode none
attr source rxPkOk
attr title "packets received OK, count"
scalar UDPBroadcastNetwork.R2.ppp[0].ppp rxPkOk:sum(packetBytes) 540
attr interpolationmode none
attr source rxPkOk
attr title "packets received OK, sum(packetBytes)"
scalar UDPBroadcastNetwork.R2.ppp[0].ppp transmissionState:timeavg 0
attr interpolationmode sample-hold
attr source transmissionStateChanged
attr title "tx state, timeavg"
scalar UDPBroadcastNetwork.R2.ppp[1].ppp.queue packetPopped:count 0
attr interpolationmode none
attr title "packet popped, count"
scalar UDPBroadcastNetwork.R2.ppp[1].ppp.queue packetPopped:sum(packetBytes) 0
attr interpolationmode none
attr title "packet popped, sum(packetBytes)"
statistic UDPBroadcastNetwork.R2.ppp[1].ppp.queue queueingTime:histogram
field count 0
field mean nan
field stddev nan
field min nan
field max nan
field sum 0
field sqrsum 0
attr interpolationmode none
attr source queueingTime(packetPopped)
attr title "queueing times, histogram"
attr unit s
bin	-inf	0
bin	0	0
bin	1	0
scalar UDPBroadcastNetwork.R2.ppp[1].ppp.queue queueLength:max nan
attr interpolationmode sample-hold
attr source "count(packetPushed) - count(packetPopped) - count(packetRemoved) - count(packetDropped)"
attr title "queue length, max"
scalar UDPBroadcastNetwork.R2.ppp[1].ppp.queue queueLength:timeavg nan
attr interpolationmode sample-hold
attr source "count(packetPushed) - count(packetPopped) - count(packetRemoved) - count(packetDropped)"
attr title "queue length, timeavg"
scalar UDPBroadcastNetwork.R2.ppp[1].ppp.queue packetPushed:count 0
attr interpolationmode none
attr title "packet pushed, count"
scalar UDPBroadcastNetwork.R2.ppp[1].ppp.queue packetPushed:sum(packetBytes) 0
attr interpolationmode none
attr title "packet pushed, sum(packetBytes)"
scalar UDPBroadcastNetwork.R2.ppp[1].ppp.queue packetDropQueueOverflow:count 0
attr interpolationmode none
attr source packetDropReasonIsQueueOverflow(packetDropped)
attr title "packet drops: queue overflow, count"
scalar UDPBroadcastNetwork.R2.ppp[1].ppp.queue packetDropQueueOverflow:sum(packetBytes) 0
attr interpolationmode none
attr source packetDropReasonIsQueueOverflow(packetDropped)
attr title "packet drops: queue overflow, sum(packetBytes)"
scalar UDPBroadcastNetwork.R2.ppp[1].ppp.queue packetRemoved:count 0
attr interpolationmode none
attr title "packets removed, count"
scalar UDPBroadcastNetwork.R2.ppp[1].ppp.queue packetRemoved:sum(packetBytes) 0
attr interpolationmode none
attr title "packets removed, sum(packetBytes)"
scalar UDPBroadcastNetwork.R2.ppp[1].ppp txPk:count 0
attr interpolationmode none
attr source packetSentToLower
attr title "packets transmitted, count"
scalar UDPBroadcastNetwork.R2.ppp[1].ppp txPk:sum(packetBytes) 0
attr interpolationmode none
attr source packetSentToLower
attr title "packets transmitted, sum(packetBytes)"
scalar UDPBroadcastNetwork.R2.ppp[1].ppp rcvdPkFromHl:count 0
attr interpolationmode none
attr source packetReceivedFromUpper
attr title "packets received from higher layer, count"
scalar UDPBroadcastNetwork.R2.ppp[1].ppp rcvdPkFromHl:sum(packetBytes) 0
attr interpolationmode none
attr source packetReceivedFromUpper
attr title "packets received from higher layer, sum(packetBytes)"
scalar UDPBroadcastNetwork.R2.ppp[1].ppp passedUpPk:count 0
attr interpolationmode none
attr source packetSentToUpper
attr title "packets passed to higher layer, count"
scalar UDPBroadcastNetwork.R2.ppp[1].ppp passedUpPk:sum(packetBytes) 0
attr interpolationmode none
attr source packetSentToUpper
attr title "packets passed to higher layer, sum(packetBytes)"
scalar UDPBroadcastNetwork.R2.ppp[1].ppp packetDropIncorrectlyReceived:count 0
attr interpolationmode none
attr source packetDropReasonIsIncorrectlyReceived(packetDropped)
attr title "packet drop: incorrectly received, count"
scalar UDPBroadcastNetwork.R2.ppp[1].ppp packetDropIncorrectlyReceived:sum(packetBytes) 0
attr interpolationmode none
attr source packetDropReasonIsIncorrectlyReceived(packetDropped)
attr title "packet drop: incorrectly received, sum(packetBytes)"
scalar UDPBroadcastNetwork.R2.ppp[1].ppp packetDropInterfaceDown:count 0
attr interpolationmode none
attr source packetDropReasonIsInterfaceDown(packetDropped)
attr title "packet drop: interface down, count"
scalar UDPBroadcastNetwork.R2.ppp[1].ppp packetDropInterfaceDown:sum(packetBytes) 0
attr interpolationmode none
attr source packetDropReasonIsInterfaceDown(packetDropped)
attr title "packet drop: interface down, sum(packetBytes)"
scalar UDPBroadcastNetwork.R2.ppp[1].ppp rxPkOk:count 0
attr interpolationmode none
attr source rxPkOk
attr title "packets received OK, count"
scalar UDPBroadcastNetwork.R2.ppp[1].ppp rxPkOk:sum(packetBytes) 0
attr interpolationmode none
attr source rxPkOk
attr title "packets received OK, sum(packetBytes)"
scalar UDPBroadcastNetwork.R2.ppp[1].ppp transmissionState:timeavg 0
attr interpolationmode sample-hold
attr source transmissionStateChanged
attr title "tx state, timeavg"
scalar UDPBroadcastNetwork.R2.eth[0].mac.queue packetPopped:count 4
attr interpolationmode none
attr title "packet popped, count"
scalar UDPBroadcastNetwork.R2.eth[0].mac.queue packetPopped:sum(packetBytes) 584
attr interpolationmode none
attr title "packet popped, sum(packetBytes)"
statistic UDPBroadcastNetwork.R2.eth[0].mac.queue queueingTime:histogram
field count 4
field mean 0
field stddev 0
field min 0
field max 0
field sum 0
field sqrsum 0
attr interpolationmode none
attr source queueingTime(packetPopped)
attr title "queueing times, histogram"
attr unit s
bin	-inf	0
bin	-0.5	0
bin	-0.48	0
bin	-0.46	0
bin	-0.44	0
bin	-0.42	0
bin	-0.4	0
bin	-0.38	0
bin	-0.36	0
bin	-0.34	0
bin	-0.32	0
bin	-0.3	0
bin	-0.28	0
bin	-0.26	0
bin	-0.24	0
bin	-0.22	0
bin	-0.2	0
bin	-0.18	0
bin	-0.16	0
bin	-0.14	0
bin	-0.12	0
bin	-0.1	0
bin	-0.08	0
bin	-0.06	0
bin	-0.04	0
bin	-0.02	0
bin	0	4
bin	0.02	0
bin	0.04	0
bin	0.06	0
bin	0.08	0
bin	0.1	0
bin	0.12	0
bin	0.14	0
bin	0.16	0
bin	0.18	0
bin	0.2	0
bin	0.22	0
bin	0.24	0
bin	0.26	0
bin	0.28	0
bin	0.3	0
bin	0.32	0
bin	0.34	0
bin	0.36	0
bin	0.38	0
bin	0.4	0
bin	0.42	0
bin	0.44	0
bin	0.46	0
bin	0.48	0
bin	0.5	0
scalar UDPBroadcastNetwork.R2.eth[0].mac.queue queueLength:max 1
attr interpolationmode sample-hold
[...]
attr interpolationmode none
attr title "backoff, count"
scalar UDPBroadcastNetwork.switch.eth[2].mac collision:count 0
attr interpolationmode none
attr title "collision, count"
scalar UDPBroadcastNetwork.switch.eth[2].mac rxPausePkUnits:count 0
attr interpolationmode none
attr title "pause units received, count"
scalar UDPBroadcastNetwork.switch.eth[2].mac rxPausePkUnits:sum 0
attr interpolationmode none
attr title "pause units received, sum"
scalar UDPBroadcastNetwork.switch.eth[2].mac txPausePkUnits:count 0
attr interpolationmode none
attr title "pause units sent, count"
scalar UDPBroadcastNetwork.switch.eth[2].mac txPausePkUnits:sum 0
attr interpolationmode none
attr title "pause units sent, sum"
scalar UDPBroadcastNetwork.switch.eth[2].mac rxPkOk:count 0
attr interpolationmode none
attr source rxPkOk
attr title "packets received OK, count"
scalar UDPBroadcastNetwork.switch.eth[2].mac rxPkOk:sum(packetBytes) 0
attr interpolationmode none
attr source rxPkOk
attr title "packets received OK, sum(packetBytes)"
scalar UDPBroadcastNetwork.switch.eth[3].mac.queue packetPopped:count 3
attr interpolationmode none
attr title "packet popped, count"
scalar UDPBroadcastNetwork.switch.eth[3].mac.queue packetPopped:sum(packetBytes) 438
attr interpolationmode none
attr title "packet popped, sum(packetBytes)"
statistic UDPBroadcastNetwork.switch.eth[3].mac.queue queueingTime:histogram
field count 3
field mean 0
field stddev 0
field min 0
field max 0
field sum 0
field sqrsum 0
attr interpolationmode none
attr source queueingTime(packetPopped)
attr title "queueing times, histogram"
attr unit s
bin	-inf	0
bin	-0.5	0
bin	-0.48	0
bin	-0.46	0
bin	-0.44	0
bin	-0.42	0
bin	-0.4	0
bin	-0.38	0
bin	-0.36	0
bin	-0.34	0
bin	-0.32	0
bin	-0.3	0
bin	-0.28	0
bin	-0.26	0
bin	-0.24	0
bin	-0.22	0
bin	-0.2	0
bin	-0.18	0
bin	-0.16	0
bin	-0.14	0
bin	-0.12	0
bin	-0.1	0
bin	-0.08	0
bin	-0.06	0
bin	-0.04	0
bin	-0.02	0
bin	0	3
bin	0.02	0
bin	0.04	0
bin	0.06	0
bin	0.08	0
bin	0.1	0
bin	0.12	0
bin	0.14	0
bin	0.16	0
bin	0.18	0
bin	0.2	0
bin	0.22	0
bin	0.24	0
bin	0.26	0
bin	0.28	0
bin	0.3	0
bin	0.32	0
bin	0.34	0
bin	0.36	0
bin	0.38	0
bin	0.4	0
bin	0.42	0
bin	0.44	0
bin	0.46	0
bin	0.48	0
bin	0.5	0
scalar UDPBroadcastNetwork.switch.eth[3].mac.queue queueLength:max 1
attr interpolationmode sample-hold
attr source "count(packetPushed) - count(packetPopped) - count(packetRemoved) - count(packetDropped)"
attr title "queue length, max"
scalar UDPBroadcastNetwork.switch.eth[3].mac.queue queueLength:timeavg 0
attr interpolationmode sample-hold
attr source "count(packetPushed) - count(packetPopped) - count(packetRemoved) - count(packetDropped)"
attr title "queue length, timeavg"
scalar UDPBroadcastNetwork.switch.eth[3].mac.queue packetPushed:count 3
attr interpolationmode none
attr title "packet pushed, count"
scalar UDPBroadcastNetwork.switch.eth[3].mac.queue packetPushed:sum(packetBytes) 438
attr interpolationmode none
attr title "packet pushed, sum(packetBytes)"
scalar UDPBroadcastNetwork.switch.eth[3].mac.queue packetDropQueueOverflow:count 0
attr interpolationmode none
attr source packetDropReasonIsQueueOverflow(packetDropped)
attr title "packet drops: queue overflow, count"
scalar UDPBroadcastNetwork.switch.eth[3].mac.queue packetDropQueueOverflow:sum(packetBytes) 0
attr interpolationmode none
attr source packetDropReasonIsQueueOverflow(packetDropped)
attr title "packet drops: queue overflow, sum(packetBytes)"
scalar UDPBroadcastNetwork.switch.eth[3].mac.queue packetRemoved:count 0
attr interpolationmode none
attr title "packets removed, count"
scalar UDPBroadcastNetwork.switch.eth[3].mac.queue packetRemoved:sum(packetBytes) 0
attr interpolationmode none
attr title "packets removed, sum(packetBytes)"
scalar UDPBroadcastNetwork.switch.eth[3].mac "simulated time" 13.000216300203
scalar UDPBroadcastNetwork.switch.eth[3].mac full-duplex 1
scalar UDPBroadcastNetwork.switch.eth[3].mac "frames/sec sent" 0.23076539118454
scalar UDPBroadcastNetwork.switch.eth[3].mac "frames/sec rcvd" 0
scalar UDPBroadcastNetwork.switch.eth[3].mac "bits/sec sent" 269.53397690354
scalar UDPBroadcastNetwork.switch.eth[3].mac "bits/sec rcvd" 0
scalar UDPBroadcastNetwork.switch.eth[3].mac "rx channel idle (%)" 100
scalar UDPBroadcastNetwork.switch.eth[3].mac "rx channel utilization (%)" 0
scalar UDPBroadcastNetwork.switch.eth[3].mac "rx channel collision (%)" 0
scalar UDPBroadcastNetwork.switch.eth[3].mac collisions 0
scalar UDPBroadcastNetwork.switch.eth[3].mac backoffs 0
scalar UDPBroadcastNetwork.switch.eth[3].mac txPk:count 3
attr interpolationmode none
attr source packetSentToLower
attr title "packets transmitted, count"
scalar UDPBroadcastNetwork.switch.eth[3].mac txPk:sum(packetBytes) 438
attr interpolationmode none
attr source packetSentToLower
attr title "packets transmitted, sum(packetBytes)"
scalar UDPBroadcastNetwork.switch.eth[3].mac packetReceivedFromUpper:count 3
attr interpolationmode none
attr source packetReceivedFromUpper
attr title "packet bytes from higher layer, count"
scalar UDPBroadcastNetwork.switch.eth[3].mac packetReceivedFromUpper:sum(packetBytes) 438
attr interpolationmode none
attr source packetReceivedFromUpper
attr title "packet bytes from higher layer, sum(packetBytes)"
scalar UDPBroadcastNetwork.switch.eth[3].mac passedUpPk:count 0
attr interpolationmode none
attr source packetSentToUpper
attr title "packets passed to higher layer, count"
scalar UDPBroadcastNetwork.switch.eth[3].mac passedUpPk:sum(packetBytes) 0
attr interpolationmode none
attr source packetSentToUpper
attr title "packets passed to higher layer, sum(packetBytes)"
scalar UDPBroadcastNetwork.switch.eth[3].mac packetDropIncorrectlyReceived:count 0
attr interpolationmode none
attr source packetDropReasonIsIncorrectlyReceived(packetDropped)
attr title "packet drop: incorrectly received, count"
scalar UDPBroadcastNetwork.switch.eth[3].mac packetDropIncorrectlyReceived:sum(packetBytes) 0
attr interpolationmode none
attr source packetDropReasonIsIncorrectlyReceived(packetDropped)
attr title "packet drop: incorrectly received, sum(packetBytes)"
scalar UDPBroadcastNetwork.switch.eth[3].mac packetDropInterfaceDown:count 0
attr interpolationmode none
attr source packetDropReasonIsInterfaceDown(packetDropped)
attr title "packet drop: interface down, count"
scalar UDPBroadcastNetwork.switch.eth[3].mac packetDropInterfaceDown:sum(packetBytes) 0
attr interpolationmode none
attr source packetDropReasonIsInterfaceDown(packetDropped)
attr title "packet drop: interface down, sum(packetBytes)"
scalar UDPBroadcastNetwork.switch.eth[3].mac packetDropNotAddressedToUs:count 0
attr interpolationmode none
attr source packetDropReasonIsNotAddressedToUs(packetDropped)
attr title "packet drop: not addressed to us, count"
scalar UDPBroadcastNetwork.switch.eth[3].mac packetDropNotAddressedToUs:sum(packetBytes) 0
attr interpolationmode none
attr source packetDropReasonIsNotAddressedToUs(packetDropped)
attr title "packet drop: not addressed to us, sum(packetBytes)"
scalar UDPBroadcastNetwork.switch.eth[3].mac backoffSlotsGenerated:count 0
attr interpolationmode none
attr title "backoff, count"
scalar UDPBroadcastNetwork.switch.eth[3].mac collision:count 0
attr interpolationmode none
attr title "collision, count"
scalar UDPBroadcastNetwork.switch.eth[3].mac rxPausePkUnits:count 0
attr interpolationmode none
attr title "pause units received, count"
scalar UDPBroadcastNetwork.switch.eth[3].mac rxPausePkUnits:sum 0
attr interpolationmode none
attr title "pause units received, sum"
scalar UDPBroadcastNetwork.switch.eth[3].mac txPausePkUnits:count 0
attr interpolationmode none
attr title "pause units sent, count"
scalar UDPBroadcastNetwork.switch.eth[3].mac txPausePkUnits:sum 0
attr interpolationmode none
attr title "pause units sent, sum"
scalar UDPBroadcastNetwork.switch.eth[3].mac rxPkOk:count 0
attr interpolationmode none
attr source rxPkOk
attr title "packets received OK, count"
scalar UDPBroadcastNetwork.switch.eth[3].mac rxPkOk:sum(packetBytes) 0
attr interpolationmode none
attr source rxPkOk
attr title "packets received OK, sum(packetBytes)"
scalar UDPBroadcastNetwork.switch.encap pauseSent:count 0
attr title "pause sent, count"
scalar UDPBroadcastNetwork.switch.encap pauseSent:sum 0
attr title "pause sent, sum"
scalar UDPBroadcastNetwork.switch.encap decapPk:count 0
attr interpolationmode none
attr source decapPk
attr title "packets decapsulated, count"
scalar UDPBroadcastNetwork.switch.encap decapPk:sum(packetBytes) 0
attr interpolationmode none
attr source decapPk
attr title "packets decapsulated, sum(packetBytes)"
scalar UDPBroadcastNetwork.switch.encap encapPk:count 0
attr interpolationmode none
attr source encapPk
attr title "packets encapsulated, count"
scalar UDPBroadcastNetwork.switch.encap encapPk:sum(packetBytes) 0
attr interpolationmode none
attr source encapPk
attr title "packets encapsulated, sum(packetBytes)"
scalar UDPBroadcastNetwork.nonTarget.lo[0].lo rcvdPkFromHl:count 0
attr interpolationmode none
attr source packetReceivedFromUpper
attr title "packets received from higher layer, count"
scalar UDPBroadcastNetwork.nonTarget.lo[0].lo rcvdPkFromHl:sum(packetBytes) 0
attr interpolationmode none
attr source packetReceivedFromUpper
attr title "packets received from higher layer, sum(packetBytes)"
scalar UDPBroadcastNetwork.nonTarget.lo[0].lo passedUpPk:count 0
attr interpolationmode none
attr source packetSentToUpper
attr title "packets passed to higher layer, count"
scalar UDPBroadcastNetwork.nonTarget.lo[0].lo passedUpPk:sum(packetBytes) 0
attr interpolationmode none
attr source packetSentToUpper
attr title "packets passed to higher layer, sum(packetBytes)"
scalar UDPBroadcastNetwork.nonTarget.ppp[0].ppp.queue packetPopped:count 0
attr interpolationmode none
attr title "packet popped, count"
scalar UDPBroadcastNetwork.nonTarget.ppp[0].ppp.queue packetPopped:sum(packetBytes) 0
attr interpolationmode none
attr title "packet popped, sum(packetBytes)"
statistic UDPBroadcastNetwork.nonTarget.ppp[0].ppp.queue queueingTime:histogram
field count 0
field mean nan
field stddev nan
field min nan
field max nan
field sum 0
field sqrsum 0
attr interpolationmode none
attr source queueingTime(packetPopped)
attr title "queueing times, histogram"
attr unit s
bin	-inf	0
bin	0	0
bin	1	0
scalar UDPBroadcastNetwork.nonTarget.ppp[0].ppp.queue queueLength:max nan
attr interpolationmode sample-hold
attr source "count(packetPushed) - count(packetPopped) - count(packetRemoved) - count(packetDropped)"
attr title "queue length, max"
scalar UDPBroadcastNetwork.nonTarget.ppp[0].ppp.queue queueLength:timeavg nan
attr interpolationmode sample-hold
attr source "count(packetPushed) - count(packetPopped) - count(packetRemoved) - count(packetDropped)"
attr title "queue length, timeavg"
scalar UDPBroadcastNetwork.nonTarget.ppp[0].ppp.queue packetPushed:count 0
attr interpolationmode none
attr title "packet pushed, count"
scalar UDPBroadcastNetwork.nonTarget.ppp[0].ppp.queue packetPushed:sum(packetBytes) 0
attr interpolationmode none
attr title "packet pushed, sum(packetBytes)"
scalar UDPBroadcastNetwork.nonTarget.ppp[0].ppp.queue packetDropQueueOverflow:count 0
attr interpolationmode none
attr source packetDropReasonIsQueueOverflow(packetDropped)
attr title "packet drops: queue overflow, count"
scalar UDPBroadcastNetwork.nonTarget.ppp[0].ppp.queue packetDropQueueOverflow:sum(packetBytes) 0
attr interpolationmode none
attr source packetDropReasonIsQueueOverflow(packetDropped)
attr title "packet drops: queue overflow, sum(packetBytes)"
scalar UDPBroadcastNetwork.nonTarget.ppp[0].ppp.queue packetRemoved:count 0
attr interpolationmode none
attr title "packets removed, count"
scalar UDPBroadcastNetwork.nonTarget.ppp[0].ppp.queue packetRemoved:sum(packetBytes) 0
attr interpolationmode none
attr title "packets removed, sum(packetBytes)"
scalar UDPBroadcastNetwork.nonTarget.ppp[0].ppp txPk:count 0
attr interpolationmode none
attr source packetSentToLower
attr title "packets transmitted, count"
scalar UDPBroadcastNetwork.nonTarget.ppp[0].ppp txPk:sum(packetBytes) 0
attr interpolationmode none
attr source packetSentToLower
attr title "packets transmitted, sum(packetBytes)"
scalar UDPBroadcastNetwork.nonTarget.ppp[0].ppp rcvdPkFromHl:count 0
attr interpolationmode none
attr source packetReceivedFromUpper
attr title "packets received from higher layer, count"
scalar UDPBroadcastNetwork.nonTarget.ppp[0].ppp rcvdPkFromHl:sum(packetBytes) 0
attr interpolationmode none
attr source packetReceivedFromUpper
attr title "packets received from higher layer, sum(packetBytes)"
scalar UDPBroadcastNetwork.nonTarget.ppp[0].ppp passedUpPk:count 0
attr interpolationmode none
attr source packetSentToUpper
attr title "packets passed to higher layer, count"
scalar UDPBroadcastNetwork.nonTarget.ppp[0].ppp passedUpPk:sum(packetBytes) 0
attr interpolationmode none
attr source packetSentToUpper
attr title "packets passed to higher layer, sum(packetBytes)"
scalar UDPBroadcastNetwork.nonTarget.ppp[0].ppp packetDropIncorrectlyReceived:count 0
attr interpolationmode none
attr source packetDropReasonIsIncorrectlyReceived(packetDropped)
attr title "packet drop: incorrectly received, count"
scalar UDPBroadcastNetwork.nonTarget.ppp[0].ppp packetDropIncorrectlyReceived:sum(packetBytes) 0
attr interpolationmode none
attr source packetDropReasonIsIncorrectlyReceived(packetDropped)
attr title "packet drop: incorrectly received, sum(packetBytes)"
scalar UDPBroadcastNetwork.nonTarget.ppp[0].ppp packetDropInterfaceDown:count 0
attr interpolationmode none
attr source packetDropReasonIsInterfaceDown(packetDropped)
attr title "packet drop: interface down, count"
scalar UDPBroadcastNetwork.nonTarget.ppp[0].ppp packetDropInterfaceDown:sum(packetBytes) 0
attr interpolationmode none
attr source packetDropReasonIsInterfaceDown(packetDropped)
attr title "packet drop: interface down, sum(packetBytes)"
scalar UDPBroadcastNetwork.nonTarget.ppp[0].ppp rxPkOk:count 0
attr interpolationmode none
attr source rxPkOk
attr title "packets received OK, count"
scalar UDPBroadcastNetwork.nonTarget.ppp[0].ppp rxPkOk:sum(packetBytes) 0
attr interpolationmode none
attr source rxPkOk
attr title "packets received OK, sum(packetBytes)"
scalar UDPBroadcastNetwork.nonTarget.ppp[0].ppp transmissionState:timeavg 0
attr interpolationmode sample-hold
attr source transmissionStateChanged
attr title "tx state, timeavg"
scalar UDPBroadcastNetwork.nonTarget.ipv4.ip packetDropAddressResolutionFailed:count 0
attr interpolationmode none
attr source packetDropReasonIsAddressResolutionFailed(packetDropped)
attr title "packet drop: address resolution failed, count"
scalar UDPBroadcastNetwork.nonTarget.ipv4.ip packetDropAddressResolutionFailed:sum(packetBytes) 0
attr interpolationmode none
attr source packetDropReasonIsAddressResolutionFailed(packetDropped)
attr title "packet drop: address resolution failed, sum(packetBytes)"
scalar UDPBroadcastNetwork.nonTarget.ipv4.ip packetDropHopLimitReached:count 0
attr interpolationmode none
attr source packetDropReasonIsHopLimitReached(packetDropped)
attr title "packet drop: hop limit reached, count"
scalar UDPBroadcastNetwork.nonTarget.ipv4.ip packetDropHopLimitReached:sum(packetBytes) 0
attr interpolationmode none
attr source packetDropReasonIsHopLimitReached(packetDropped)
attr title "packet drop: hop limit reached, sum(packetBytes)"
scalar UDPBroadcastNetwork.nonTarget.ipv4.ip packetDropForwardingDisabled:count 0
attr interpolationmode none
attr source packetDropReasonIsForwardingDisabled(packetDropped)
attr title "packet drop: forwarding disabled, count"
scalar UDPBroadcastNetwork.nonTarget.ipv4.ip packetDropForwardingDisabled:sum(packetBytes) 0
attr interpolationmode none
attr source packetDropReasonIsForwardingDisabled(packetDropped)
attr title "packet drop: forwarding disabled, sum(packetBytes)"
scalar UDPBroadcastNetwork.nonTarget.ipv4.ip packetDropNoInterfaceFound:count 0
attr interpolationmode none
attr source packetDropReasonIsNoInterfaceFound(packetDropped)
attr title "packet drop: no interface found, count"
scalar UDPBroadcastNetwork.nonTarget.ipv4.ip packetDropNoInterfaceFound:sum(packetBytes) 0
attr interpolationmode none
attr source packetDropReasonIsNoInterfaceFound(packetDropped)
attr title "packet drop: no interface found, sum(packetBytes)"
scalar UDPBroadcastNetwork.nonTarget.ipv4.ip packetDropNoRouteFound:count 0
attr interpolationmode none
attr source packetDropReasonIsNoRouteFound(packetDropped)
attr title "packet drop: no route found, count"
scalar UDPBroadcastNetwork.nonTarget.ipv4.ip packetDropNoRouteFound:sum(packetBytes) 0
attr interpolationmode none
attr source packetDropReasonIsNoRouteFound(packetDropped)
attr title "packet drop: no route found, sum(packetBytes)"
scalar UDPBroadcastNetwork.nonTarget.ipv4.ip packetDropUndefined:count 0
attr interpolationmode none
attr source packetDropReasonIsUndefined(packetDropped)
attr title "packet drop: undefined, count"
scalar UDPBroadcastNetwork.nonTarget.ipv4.ip packetDropUndefined:sum(packetBytes) 0
attr interpolationmode none
attr source packetDropReasonIsUndefined(packetDropped)
attr title "packet drop: undefined, sum(packetBytes)"
scalar UDPBroadcastNetwork.nonTarget.ipv4.arp arpReplySent:count 0
attr source arpReplySent
attr title "ARP replies sent, count"
scalar UDPBroadcastNetwork.nonTarget.ipv4.arp arpReplySent:sum(packetBytes) 0
attr source arpReplySent
attr title "ARP replies sent, sum(packetBytes)"
scalar UDPBroadcastNetwork.nonTarget.ipv4.arp arpRequestSent:count 0
attr source arpRequestSent
attr title "ARP request sent, count"
scalar UDPBroadcastNetwork.nonTarget.ipv4.arp arpRequestSent:sum(packetBytes) 0
attr source arpRequestSent
attr title "ARP request sent, sum(packetBytes)"
scalar UDPBroadcastNetwork.nonTarget.ipv4.arp arpResolutionFailed:count 0
attr title "ARP failed resolutions, count"
scalar UDPBroadcastNetwork.nonTarget.ipv4.arp arpResolutionCompleted:count 0
attr title "ARP completed resolutions, count"
scalar UDPBroadcastNetwork.nonTarget.ipv4.arp arpResolutionInitiated:count 0
attr title "ARP initiated resolutions, count"
scalar UDPBroadcastNetwork.nonTarget.udp packetReceived:count 0
attr interpolationmode none
attr source packetReceived
attr title "packets received, count"
scalar UDPBroadcastNetwork.nonTarget.udp packetReceived:sum(packetBytes) 0
attr interpolationmode none
attr source packetReceived
attr title "packets received, sum(packetBytes)"
scalar UDPBroadcastNetwork.nonTarget.udp packetSent:count 0
attr interpolationmode none
attr source packetSent
attr title "packets sent, count"
scalar UDPBroadcastNetwork.nonTarget.udp packetSent:sum(packetBytes) 0
attr interpolationmode none
attr source packetSent
attr title "packets sent, sum(packetBytes)"
scalar UDPBroadcastNetwork.nonTarget.udp passedUpPk:count 0
attr interpolationmode none
attr source packetSentToUpper
attr title "packets passed up, count"
scalar UDPBroadcastNetwork.nonTarget.udp droppedPkWrongPort:count 0
attr interpolationmode none
attr source packetDropReasonIsNoPortFound(packetDropped)
attr title "packets dropped (wrong port), count"
scalar UDPBroadcastNetwork.nonTarget.udp droppedPkBadChecksum:count 0
attr interpolationmode none
attr source packetDropReasonIsIncorrectlyReceived(packetDropped)
attr title "packets dropped (checksum error), count"
scalar UDPBroadcastNetwork.nonTarget.app[0] packetReceived:count 0
attr interpolationmode none
attr source packetReceived
attr title "packets received, count"
scalar UDPBroadcastNetwork.nonTarget.app[0] packetReceived:sum(packetBytes) 0
attr interpolationmode none
attr source packetReceived
attr title "packets received, sum(packetBytes)"
statistic UDPBroadcastNetwork.nonTarget.app[0] endToEndDelay:histogram
field count 0
field mean nan
field stddev nan
field min nan
field max nan
field sum 0
field sqrsum 0
attr interpolationmode none
attr source dataAge(packetReceived)
attr title "end-to-end delay, histogram"
attr unit s
bin	-inf	0
bin	0	0
bin	1	0

