version 2
run _100_Pings-0-20210121-15:21:49-3184
attr configname _100_Pings
attr datetime 20210121-15:21:49
attr experiment _100_Pings
attr inifile 2Host_SpineLeaf.ini
attr iterationvars ""
attr iterationvarsf ""
attr measurement ""
attr network RandomTestingTopology
attr processid 3184
attr repetition 0
attr replication #0
attr resultdir results
attr runnumber 0
attr seedset 0
param **.H0.numApps 1
param **.H0.app[0].typename "\"PingApp\""
param **.H0.app[0].destAddr "\"H1\""
param **.H0.app[0].count 100
param *.Visualizer.interfaceTableVisualizer.displayInterfaceTables true
param *.Visualizer.interfaceTableVisualizer.textColor "\"white\""
param *.Visualizer.interfaceTableVisualizer.displayBackground true
param *.Visualizer.interfaceTableVisualizer.displayWiredInterfacesAtConnections false
param *.Visualizer.interfaceTableVisualizer.backgroundColor "\"black\""
param *.Visualizer.interfaceTableVisualizer.opacity 0.75
param *.Visualizer.interfaceTableVisualizer.format "\"%N %\\\\%n/%l%\\\\%m\""
param **.configurator.config "xmldoc(\"2Host_SpineLeaf_Routing.xml\")"

vector 0 RandomTestingTopology.H0.app[0] pingTxSeq:vector ETV
attr interpolationmode none
attr title "ping tx seq, vector"
vector 1 RandomTestingTopology.H0.ipv4.arp arpRequestSent:vector(packetBytes) ETV
attr source arpRequestSent
attr title "ARP request sent, vector(packetBytes)"
vector 2 RandomTestingTopology.H0.eth[0].encap encapPk:vector(packetBytes) ETV
attr interpolationmode none
attr source encapPk
attr title "packets encapsulated, vector(packetBytes)"
vector 3 RandomTestingTopology.H0.eth[0].mac packetReceivedFromUpper:vector(packetBytes) ETV
attr interpolationmode none
attr source packetReceivedFromUpper
attr title "packet bytes from higher layer, vector(packetBytes)"
vector 4 RandomTestingTopology.H0.eth[0].mac.queue packetPushed:vector(packetBytes) ETV
attr interpolationmode none
attr title "packet pushed, vector(packetBytes)"
vector 5 RandomTestingTopology.H0.eth[0].mac.queue queueLength:vector ETV
attr interpolationmode sample-hold
attr source "count(packetPushed) - count(packetPopped) - count(packetRemoved) - count(packetDropped)"
attr title "queue length, vector"
vector 6 RandomTestingTopology.H0.eth[0].mac.queue packetPopped:vector(packetBytes) ETV
attr interpolationmode none
attr title "packet popped, vector(packetBytes)"
vector 7 RandomTestingTopology.H0.eth[0].mac.queue queueingTime:vector ETV
attr interpolationmode none
attr source queueingTime(packetPopped)
attr title "queueing times, vector"
attr unit s
vector 8 RandomTestingTopology.H0.eth[0].mac txPk:vector(packetBytes) ETV
attr interpolationmode none
attr source packetSentToLower
attr title "packets transmitted, vector(packetBytes)"
vector 9 RandomTestingTopology.leaf1.eth[3].mac rxPkOk:vector(packetBytes) ETV
attr interpolationmode none
attr source rxPkOk
attr title "packets received OK, vector(packetBytes)"
vector 10 RandomTestingTopology.leaf1.eth[3].mac passedUpPk:vector(packetBytes) ETV
attr interpolationmode none
attr source packetSentToUpper
attr title "packets passed to higher layer, vector(packetBytes)"
vector 11 RandomTestingTopology.leaf1.eth[3].encap decapPk:vector(packetBytes) ETV
attr interpolationmode none
attr source decapPk
attr title "packets decapsulated, vector(packetBytes)"
vector 12 RandomTestingTopology.leaf1.ipv4.arp arpReplySent:vector(packetBytes) ETV
attr source arpReplySent
attr title "ARP replies sent, vector(packetBytes)"
vector 13 RandomTestingTopology.leaf1.eth[3].encap encapPk:vector(packetBytes) ETV
attr interpolationmode none
attr source encapPk
attr title "packets encapsulated, vector(packetBytes)"
vector 14 RandomTestingTopology.leaf1.eth[3].mac packetReceivedFromUpper:vector(packetBytes) ETV
attr interpolationmode none
attr source packetReceivedFromUpper
attr title "packet bytes from higher layer, vector(packetBytes)"
vector 15 RandomTestingTopology.leaf1.eth[3].mac.queue packetPushed:vector(packetBytes) ETV
attr interpolationmode none
attr title "packet pushed, vector(packetBytes)"
vector 16 RandomTestingTopology.leaf1.eth[3].mac.queue queueLength:vector ETV
attr interpolationmode sample-hold
attr source "count(packetPushed) - count(packetPopped) - count(packetRemoved) - count(packetDropped)"
attr title "queue length, vector"
vector 17 RandomTestingTopology.leaf1.eth[3].mac.queue packetPopped:vector(packetBytes) ETV
attr interpolationmode none
attr title "packet popped, vector(packetBytes)"
vector 18 RandomTestingTopology.leaf1.eth[3].mac.queue queueingTime:vector ETV
attr interpolationmode none
attr source queueingTime(packetPopped)
attr title "queueing times, vector"
attr unit s
vector 19 RandomTestingTopology.leaf1.eth[3].mac txPk:vector(packetBytes) ETV
attr interpolationmode none
attr source packetSentToLower
attr title "packets transmitted, vector(packetBytes)"
vector 20 RandomTestingTopology.H0.eth[0].mac rxPkOk:vector(packetBytes) ETV
attr interpolationmode none
attr source rxPkOk
attr title "packets received OK, vector(packetBytes)"
vector 21 RandomTestingTopology.H0.eth[0].mac passedUpPk:vector(packetBytes) ETV
attr interpolationmode none
attr source packetSentToUpper
attr title "packets passed to higher layer, vector(packetBytes)"
vector 22 RandomTestingTopology.H0.eth[0].encap decapPk:vector(packetBytes) ETV
attr interpolationmode none
attr source decapPk
attr title "packets decapsulated, vector(packetBytes)"
vector 23 RandomTestingTopology.leaf1.ipv4.arp arpRequestSent:vector(packetBytes) ETV
attr source arpRequestSent
attr title "ARP request sent, vector(packetBytes)"
vector 24 RandomTestingTopology.leaf1.eth[0].encap encapPk:vector(packetBytes) ETV
attr interpolationmode none
attr source encapPk
attr title "packets encapsulated, vector(packetBytes)"
vector 25 RandomTestingTopology.leaf1.eth[0].mac packetReceivedFromUpper:vector(packetBytes) ETV
attr interpolationmode none
attr source packetReceivedFromUpper
attr title "packet bytes from higher layer, vector(packetBytes)"
vector 26 RandomTestingTopology.leaf1.eth[0].mac.queue packetPushed:vector(packetBytes) ETV
attr interpolationmode none
attr title "packet pushed, vector(packetBytes)"
vector 27 RandomTestingTopology.leaf1.eth[0].mac.queue queueLength:vector ETV
attr interpolationmode sample-hold
attr source "count(packetPushed) - count(packetPopped) - count(packetRemoved) - count(packetDropped)"
attr title "queue length, vector"
vector 28 RandomTestingTopology.leaf1.eth[0].mac.queue packetPopped:vector(packetBytes) ETV
attr interpolationmode none
attr title "packet popped, vector(packetBytes)"
vector 29 RandomTestingTopology.leaf1.eth[0].mac.queue queueingTime:vector ETV
attr interpolationmode none
attr source queueingTime(packetPopped)
attr title "queueing times, vector"
attr unit s
vector 30 RandomTestingTopology.leaf1.eth[0].mac txPk:vector(packetBytes) ETV
attr interpolationmode none
attr source packetSentToLower
attr title "packets transmitted, vector(packetBytes)"
vector 31 RandomTestingTopology.spine1.eth[0].mac rxPkOk:vector(packetBytes) ETV
attr interpolationmode none
attr source rxPkOk
attr title "packets received OK, vector(packetBytes)"
vector 32 RandomTestingTopology.spine1.eth[0].mac passedUpPk:vector(packetBytes) ETV
attr interpolationmode none
attr source packetSentToUpper
attr title "packets passed to higher layer, vector(packetBytes)"
vector 33 RandomTestingTopology.spine1.eth[0].encap decapPk:vector(packetBytes) ETV
attr interpolationmode none
attr source decapPk
attr title "packets decapsulated, vector(packetBytes)"
vector 34 RandomTestingTopology.spine1.ipv4.arp arpReplySent:vector(packetBytes) ETV
attr source arpReplySent
attr title "ARP replies sent, vector(packetBytes)"
vector 35 RandomTestingTopology.spine1.eth[0].encap encapPk:vector(packetBytes) ETV
attr interpolationmode none
attr source encapPk
attr title "packets encapsulated, vector(packetBytes)"
vector 36 RandomTestingTopology.spine1.eth[0].mac packetReceivedFromUpper:vector(packetBytes) ETV
attr interpolationmode none
attr source packetReceivedFromUpper
attr title "packet bytes from higher layer, vector(packetBytes)"
vector 37 RandomTestingTopology.spine1.eth[0].mac.queue packetPushed:vector(packetBytes) ETV
attr interpolationmode none
attr title "packet pushed, vector(packetBytes)"
vector 38 RandomTestingTopology.spine1.eth[0].mac.queue queueLength:vector ETV
attr interpolationmode sample-hold
attr source "count(packetPushed) - count(packetPopped) - count(packetRemoved) - count(packetDropped)"
attr title "queue length, vector"
vector 39 RandomTestingTopology.spine1.eth[0].mac.queue packetPopped:vector(packetBytes) ETV
attr interpolationmode none
attr title "packet popped, vector(packetBytes)"
vector 40 RandomTestingTopology.spine1.eth[0].mac.queue queueingTime:vector ETV
attr interpolationmode none
attr source queueingTime(packetPopped)
attr title "queueing times, vector"
attr unit s
vector 41 RandomTestingTopology.spine1.eth[0].mac txPk:vector(packetBytes) ETV
attr interpolationmode none
attr source packetSentToLower
attr title "packets transmitted, vector(packetBytes)"
vector 42 RandomTestingTopology.leaf1.eth[0].mac rxPkOk:vector(packetBytes) ETV
attr interpolationmode none
attr source rxPkOk
attr title "packets received OK, vector(packetBytes)"
vector 43 RandomTestingTopology.leaf1.eth[0].mac passedUpPk:vector(packetBytes) ETV
attr interpolationmode none
attr source packetSentToUpper
attr title "packets passed to higher layer, vector(packetBytes)"
vector 44 RandomTestingTopology.leaf1.eth[0].encap decapPk:vector(packetBytes) ETV
attr interpolationmode none
attr source decapPk
attr title "packets decapsulated, vector(packetBytes)"
vector 45 RandomTestingTopology.spine1.ipv4.arp arpRequestSent:vector(packetBytes) ETV
attr source arpRequestSent
attr title "ARP request sent, vector(packetBytes)"
vector 46 RandomTestingTopology.spine1.eth[1].encap encapPk:vector(packetBytes) ETV
attr interpolationmode none
attr source encapPk
attr title "packets encapsulated, vector(packetBytes)"
vector 47 RandomTestingTopology.spine1.eth[1].mac packetReceivedFromUpper:vector(packetBytes) ETV
attr interpolationmode none
attr source packetReceivedFromUpper
attr title "packet bytes from higher layer, vector(packetBytes)"
vector 48 RandomTestingTopology.spine1.eth[1].mac.queue packetPushed:vector(packetBytes) ETV
attr interpolationmode none
attr title "packet pushed, vector(packetBytes)"
vector 49 RandomTestingTopology.spine1.eth[1].mac.queue queueLength:vector ETV
attr interpolationmode sample-hold
attr source "count(packetPushed) - count(packetPopped) - count(packetRemoved) - count(packetDropped)"
attr title "queue length, vector"
vector 50 RandomTestingTopology.spine1.eth[1].mac.queue packetPopped:vector(packetBytes) ETV
attr interpolationmode none
attr title "packet popped, vector(packetBytes)"
vector 51 RandomTestingTopology.spine1.eth[1].mac.queue queueingTime:vector ETV
attr interpolationmode none
attr source queueingTime(packetPopped)
attr title "queueing times, vector"
attr unit s
vector 52 RandomTestingTopology.spine1.eth[1].mac txPk:vector(packetBytes) ETV
attr interpolationmode none
attr source packetSentToLower
attr title "packets transmitted, vector(packetBytes)"
vector 53 RandomTestingTopology.leaf2.eth[0].mac rxPkOk:vector(packetBytes) ETV
attr interpolationmode none
attr source rxPkOk
attr title "packets received OK, vector(packetBytes)"
vector 54 RandomTestingTopology.leaf2.eth[0].mac passedUpPk:vector(packetBytes) ETV
attr interpolationmode none
attr source packetSentToUpper
attr title "packets passed to higher layer, vector(packetBytes)"
vector 55 RandomTestingTopology.leaf2.eth[0].encap decapPk:vector(packetBytes) ETV
attr interpolationmode none
attr source decapPk
attr title "packets decapsulated, vector(packetBytes)"
vector 56 RandomTestingTopology.leaf2.ipv4.arp arpReplySent:vector(packetBytes) ETV
attr source arpReplySent
attr title "ARP replies sent, vector(packetBytes)"
vector 57 RandomTestingTopology.leaf2.eth[0].encap encapPk:vector(packetBytes) ETV
attr interpolationmode none
attr source encapPk
attr title "packets encapsulated, vector(packetBytes)"
vector 58 RandomTestingTopology.leaf2.eth[0].mac packetReceivedFromUpper:vector(packetBytes) ETV
attr interpolationmode none
attr source packetReceivedFromUpper
attr title "packet bytes from higher layer, vector(packetBytes)"
vector 59 RandomTestingTopology.leaf2.eth[0].mac.queue packetPushed:vector(packetBytes) ETV
attr interpolationmode none
attr title "packet pushed, vector(packetBytes)"
vector 60 RandomTestingTopology.leaf2.eth[0].mac.queue queueLength:vector ETV
attr interpolationmode sample-hold
attr source "count(packetPushed) - count(packetPopped) - count(packetRemoved) - count(packetDropped)"
attr title "queue length, vector"
vector 61 RandomTestingTopology.leaf2.eth[0].mac.queue packetPopped:vector(packetBytes) ETV
attr interpolationmode none
attr title "packet popped, vector(packetBytes)"
vector 62 RandomTestingTopology.leaf2.eth[0].mac.queue queueingTime:vector ETV
attr interpolationmode none
attr source queueingTime(packetPopped)
attr title "queueing times, vector"
attr unit s
vector 63 RandomTestingTopology.leaf2.eth[0].mac txPk:vector(packetBytes) ETV
attr interpolationmode none
attr source packetSentToLower
attr title "packets transmitted, vector(packetBytes)"
vector 64 RandomTestingTopology.spine1.eth[1].mac rxPkOk:vector(packetBytes) ETV
attr interpolationmode none
attr source rxPkOk
attr title "packets received OK, vector(packetBytes)"
vector 65 RandomTestingTopology.spine1.eth[1].mac passedUpPk:vector(packetBytes) ETV
attr interpolationmode none
attr source packetSentToUpper
attr title "packets passed to higher layer, vector(packetBytes)"
vector 66 RandomTestingTopology.spine1.eth[1].encap decapPk:vector(packetBytes) ETV
attr interpolationmode none
attr source decapPk
attr title "packets decapsulated, vector(packetBytes)"
vector 67 RandomTestingTopology.leaf2.ipv4.arp arpRequestSent:vector(packetBytes) ETV
attr source arpRequestSent
attr title "ARP request sent, vector(packetBytes)"
vector 68 RandomTestingTopology.leaf2.eth[3].encap encapPk:vector(packetBytes) ETV
attr interpolationmode none
attr source encapPk
attr title "packets encapsulated, vector(packetBytes)"
vector 69 RandomTestingTopology.leaf2.eth[3].mac packetReceivedFromUpper:vector(packetBytes) ETV
attr interpolationmode none
attr source packetReceivedFromUpper
attr title "packet bytes from higher layer, vector(packetBytes)"
vector 70 RandomTestingTopology.leaf2.eth[3].mac.queue packetPushed:vector(packetBytes) ETV
attr interpolationmode none
attr title "packet pushed, vector(packetBytes)"
vector 71 RandomTestingTopology.leaf2.eth[3].mac.queue queueLength:vector ETV
attr interpolationmode sample-hold
attr source "count(packetPushed) - count(packetPopped) - count(packetRemoved) - count(packetDropped)"
attr title "queue length, vector"
vector 72 RandomTestingTopology.leaf2.eth[3].mac.queue packetPopped:vector(packetBytes) ETV
attr interpolationmode none
attr title "packet popped, vector(packetBytes)"
vector 73 RandomTestingTopology.leaf2.eth[3].mac.queue queueingTime:vector ETV
attr interpolationmode none
attr source queueingTime(packetPopped)
attr title "queueing times, vector"
attr unit s
vector 74 RandomTestingTopology.leaf2.eth[3].mac txPk:vector(packetBytes) ETV
attr interpolationmode none
attr source packetSentToLower
attr title "packets transmitted, vector(packetBytes)"
vector 75 RandomTestingTopology.H1.eth[0].mac rxPkOk:vector(packetBytes) ETV
attr interpolationmode none
attr source rxPkOk
attr title "packets received OK, vector(packetBytes)"
vector 76 RandomTestingTopology.H1.eth[0].mac passedUpPk:vector(packetBytes) ETV
attr interpolationmode none
attr source packetSentToUpper
attr title "packets passed to higher layer, vector(packetBytes)"
vector 77 RandomTestingTopology.H1.eth[0].encap decapPk:vector(packetBytes) ETV
attr interpolationmode none
attr source decapPk
attr title "packets decapsulated, vector(packetBytes)"
vector 78 RandomTestingTopology.H1.ipv4.arp arpReplySent:vector(packetBytes) ETV
attr source arpReplySent
attr title "ARP replies sent, vector(packetBytes)"
vector 79 RandomTestingTopology.H1.eth[0].encap encapPk:vector(packetBytes) ETV
attr interpolationmode none
attr source encapPk
attr title "packets encapsulated, vector(packetBytes)"
vector 80 RandomTestingTopology.H1.eth[0].mac packetReceivedFromUpper:vector(packetBytes) ETV
attr interpolationmode none
attr source packetReceivedFromUpper
attr title "packet bytes from higher layer, vector(packetBytes)"
vector 81 RandomTestingTopology.H1.eth[0].mac.queue packetPushed:vector(packetBytes) ETV
attr interpolationmode none
attr title "packet pushed, vector(packetBytes)"
vector 82 RandomTestingTopology.H1.eth[0].mac.queue queueLength:vector ETV
attr interpolationmode sample-hold
attr source "count(packetPushed) - count(packetPopped) - count(packetRemoved) - count(packetDropped)"
attr title "queue length, vector"
vector 83 RandomTestingTopology.H1.eth[0].mac.queue packetPopped:vector(packetBytes) ETV
attr interpolationmode none
attr title "packet popped, vector(packetBytes)"
vector 84 RandomTestingTopology.H1.eth[0].mac.queue queueingTime:vector ETV
attr interpolationmode none
attr source queueingTime(packetPopped)
attr title "queueing times, vector"
attr unit s
vector 85 RandomTestingTopology.H1.eth[0].mac txPk:vector(packetBytes) ETV
attr interpolationmode none
attr source packetSentToLower
attr title "packets transmitted, vector(packetBytes)"
vector 86 RandomTestingTopology.leaf2.eth[3].mac rxPkOk:vector(packetBytes) ETV
attr interpolationmode none
attr source rxPkOk
attr title "packets received OK, vector(packetBytes)"
vector 87 RandomTestingTopology.leaf2.eth[3].mac passedUpPk:vector(packetBytes) ETV
attr interpolationmode none
attr source packetSentToUpper
attr title "packets passed to higher layer, vector(packetBytes)"
vector 88 RandomTestingTopology.leaf2.eth[3].encap decapPk:vector(packetBytes) ETV
attr interpolationmode none
attr source decapPk
attr title "packets decapsulated, vector(packetBytes)"
vector 89 RandomTestingTopology.leaf2.eth[2].encap encapPk:vector(packetBytes) ETV
attr interpolationmode none
attr source encapPk
attr title "packets encapsulated, vector(packetBytes)"
vector 90 RandomTestingTopology.leaf2.eth[2].mac packetReceivedFromUpper:vector(packetBytes) ETV
attr interpolationmode none
attr source packetReceivedFromUpper
attr title "packet bytes from higher layer, vector(packetBytes)"
vector 91 RandomTestingTopology.leaf2.eth[2].mac.queue packetPushed:vector(packetBytes) ETV
attr interpolationmode none
attr title "packet pushed, vector(packetBytes)"
vector 92 RandomTestingTopology.leaf2.eth[2].mac.queue queueLength:vector ETV
attr interpolationmode sample-hold
attr source "count(packetPushed) - count(packetPopped) - count(packetRemoved) - count(packetDropped)"
attr title "queue length, vector"
vector 93 RandomTestingTopology.leaf2.eth[2].mac.queue packetPopped:vector(packetBytes) ETV
attr interpolationmode none
attr title "packet popped, vector(packetBytes)"
vector 94 RandomTestingTopology.leaf2.eth[2].mac.queue queueingTime:vector ETV
attr interpolationmode none
attr source queueingTime(packetPopped)
attr title "queueing times, vector"
attr unit s
vector 95 RandomTestingTopology.leaf2.eth[2].mac txPk:vector(packetBytes) ETV
attr interpolationmode none
attr source packetSentToLower
attr title "packets transmitted, vector(packetBytes)"
vector 96 RandomTestingTopology.spine3.eth[1].mac rxPkOk:vector(packetBytes) ETV
attr interpolationmode none
attr source rxPkOk
attr title "packets received OK, vector(packetBytes)"
vector 97 RandomTestingTopology.spine3.eth[1].mac passedUpPk:vector(packetBytes) ETV
attr interpolationmode none
attr source packetSentToUpper
attr title "packets passed to higher layer, vector(packetBytes)"
vector 98 RandomTestingTopology.spine3.eth[1].encap decapPk:vector(packetBytes) ETV
attr interpolationmode none
attr source decapPk
attr title "packets decapsulated, vector(packetBytes)"
vector 99 RandomTestingTopology.spine3.ipv4.arp arpReplySent:vector(packetBytes) ETV
attr source arpReplySent
attr title "ARP replies sent, vector(packetBytes)"
vector 100 RandomTestingTopology.spine3.eth[1].encap encapPk:vector(packetBytes) ETV
attr interpolationmode none
attr source encapPk
attr title "packets encapsulated, vector(packetBytes)"
vector 101 RandomTestingTopology.spine3.eth[1].mac packetReceivedFromUpper:vector(packetBytes) ETV
attr interpolationmode none
attr source packetReceivedFromUpper
attr title "packet bytes from higher layer, vector(packetBytes)"
vector 102 RandomTestingTopology.spine3.eth[1].mac.queue packetPushed:vector(packetBytes) ETV
attr interpolationmode none
attr title "packet pushed, vector(packetBytes)"
vector 103 RandomTestingTopology.spine3.eth[1].mac.queue queueLength:vector ETV
attr interpolationmode sample-hold
attr source "count(packetPushed) - count(packetPopped) - count(packetRemoved) - count(packetDropped)"
attr title "queue length, vector"
vector 104 RandomTestingTopology.spine3.eth[1].mac.queue packetPopped:vector(packetBytes) ETV
attr interpolationmode none
attr title "packet popped, vector(packetBytes)"
vector 105 RandomTestingTopology.spine3.eth[1].mac.queue queueingTime:vector ETV
attr interpolationmode none
attr source queueingTime(packetPopped)
attr title "queueing times, vector"
attr unit s
vector 106 RandomTestingTopology.spine3.eth[1].mac txPk:vector(packetBytes) ETV
attr interpolationmode none
attr source packetSentToLower
attr title "packets transmitted, vector(packetBytes)"
vector 107 RandomTestingTopology.leaf2.eth[2].mac rxPkOk:vector(packetBytes) ETV
attr interpolationmode none
attr source rxPkOk
attr title "packets received OK, vector(packetBytes)"
vector 108 RandomTestingTopology.leaf2.eth[2].mac passedUpPk:vector(packetBytes) ETV
attr interpolationmode none
attr source packetSentToUpper
attr title "packets passed to higher layer, vector(packetBytes)"
vector 109 RandomTestingTopology.leaf2.eth[2].encap decapPk:vector(packetBytes) ETV
attr interpolationmode none
attr source decapPk
attr title "packets decapsulated, vector(packetBytes)"
vector 110 RandomTestingTopology.spine3.ipv4.arp arpRequestSent:vector(packetBytes) ETV
attr source arpRequestSent
attr title "ARP request sent, vector(packetBytes)"
vector 111 RandomTestingTopology.spine3.eth[0].encap encapPk:vector(packetBytes) ETV
attr interpolationmode none
attr source encapPk
attr title "packets encapsulated, vector(packetBytes)"
vector 112 RandomTestingTopology.spine3.eth[0].mac packetReceivedFromUpper:vector(packetBytes) ETV
attr interpolationmode none
attr source packetReceivedFromUpper
attr title "packet bytes from higher layer, vector(packetBytes)"
vector 113 RandomTestingTopology.spine3.eth[0].mac.queue packetPushed:vector(packetBytes) ETV
attr interpolationmode none
attr title "packet pushed, vector(packetBytes)"
vector 114 RandomTestingTopology.spine3.eth[0].mac.queue queueLength:vector ETV
attr interpolationmode sample-hold
attr source "count(packetPushed) - count(packetPopped) - count(packetRemoved) - count(packetDropped)"
attr title "queue length, vector"
vector 115 RandomTestingTopology.spine3.eth[0].mac.queue packetPopped:vector(packetBytes) ETV
attr interpolationmode none
attr title "packet popped, vector(packetBytes)"
vector 116 RandomTestingTopology.spine3.eth[0].mac.queue queueingTime:vector ETV
attr interpolationmode none
attr source queueingTime(packetPopped)
attr title "queueing times, vector"
attr unit s
vector 117 RandomTestingTopology.spine3.eth[0].mac txPk:vector(packetBytes) ETV
attr interpolationmode none
attr source packetSentToLower
attr title "packets transmitted, vector(packetBytes)"
vector 118 RandomTestingTopology.leaf1.eth[2].mac rxPkOk:vector(packetBytes) ETV
attr interpolationmode none
attr source rxPkOk
attr title "packets received OK, vector(packetBytes)"
vector 119 RandomTestingTopology.leaf1.eth[2].mac passedUpPk:vector(packetBytes) ETV
attr interpolationmode none
attr source packetSentToUpper
attr title "packets passed to higher layer, vector(packetBytes)"
vector 120 RandomTestingTopology.leaf1.eth[2].encap decapPk:vector(packetBytes) ETV
attr interpolationmode none
attr source decapPk
attr title "packets decapsulated, vector(packetBytes)"
vector 121 RandomTestingTopology.leaf1.eth[2].encap encapPk:vector(packetBytes) ETV
attr interpolationmode none
attr source encapPk
attr title "packets encapsulated, vector(packetBytes)"
vector 122 RandomTestingTopology.leaf1.eth[2].mac packetReceivedFromUpper:vector(packetBytes) ETV
attr interpolationmode none
attr source packetReceivedFromUpper
attr title "packet bytes from higher layer, vector(packetBytes)"
vector 123 RandomTestingTopology.leaf1.eth[2].mac.queue packetPushed:vector(packetBytes) ETV
attr interpolationmode none
attr title "packet pushed, vector(packetBytes)"
vector 124 RandomTestingTopology.leaf1.eth[2].mac.queue queueLength:vector ETV
attr interpolationmode sample-hold
attr source "count(packetPushed) - count(packetPopped) - count(packetRemoved) - count(packetDropped)"
attr title "queue length, vector"
vector 125 RandomTestingTopology.leaf1.eth[2].mac.queue packetPopped:vector(packetBytes) ETV
attr interpolationmode none
attr title "packet popped, vector(packetBytes)"
vector 126 RandomTestingTopology.leaf1.eth[2].mac.queue queueingTime:vector ETV
attr interpolationmode none
attr source queueingTime(packetPopped)
attr title "queueing times, vector"
attr unit s
vector 127 RandomTestingTopology.leaf1.eth[2].mac txPk:vector(packetBytes) ETV
attr interpolationmode none
attr source packetSentToLower
attr title "packets transmitted, vector(packetBytes)"
vector 128 RandomTestingTopology.spine3.eth[0].mac rxPkOk:vector(packetBytes) ETV
attr interpolationmode none
attr source rxPkOk
attr title "packets received OK, vector(packetBytes)"
vector 129 RandomTestingTopology.spine3.eth[0].mac passedUpPk:vector(packetBytes) ETV
attr interpolationmode none
attr source packetSentToUpper
attr title "packets passed to higher layer, vector(packetBytes)"
vector 130 RandomTestingTopology.spine3.eth[0].encap decapPk:vector(packetBytes) ETV
attr interpolationmode none
attr source decapPk
attr title "packets decapsulated, vector(packetBytes)"
vector 131 RandomTestingTopology.H0.app[0] pingRxSeq:vector ETV
attr interpolationmode none
attr title "ping rx seq, vector"
vector 132 RandomTestingTopology.H0.app[0] rtt:vector ETV
attr interpolationmode none
attr title "ping round-trip time, vector"
attr unit s
vector 133 RandomTestingTopology.leaf1.eth[1].encap encapPk:vector(packetBytes) ETV
attr interpolationmode none
attr source encapPk
attr title "packets encapsulated, vector(packetBytes)"
vector 134 RandomTestingTopology.leaf1.eth[1].mac packetReceivedFromUpper:vector(packetBytes) ETV
attr interpolationmode none
attr source packetReceivedFromUpper
attr title "packet bytes from higher layer, vector(packetBytes)"
vector 135 RandomTestingTopology.leaf1.eth[1].mac.queue packetPushed:vector(packetBytes) ETV
attr interpolationmode none
attr title "packet pushed, vector(packetBytes)"
vector 136 RandomTestingTopology.leaf1.eth[1].mac.queue queueLength:vector ETV
attr interpolationmode sample-hold
attr source "count(packetPushed) - count(packetPopped) - count(packetRemoved) - count(packetDropped)"
attr title "queue length, vector"
vector 137 RandomTestingTopology.leaf1.eth[1].mac.queue packetPopped:vector(packetBytes) ETV
attr interpolationmode none
attr title "packet popped, vector(packetBytes)"
vector 138 RandomTestingTopology.leaf1.eth[1].mac.queue queueingTime:vector ETV
attr interpolationmode none
attr source queueingTime(packetPopped)
attr title "queueing times, vector"
attr unit s
vector 139 RandomTestingTopology.leaf1.eth[1].mac txPk:vector(packetBytes) ETV
attr interpolationmode none
attr source packetSentToLower
attr title "packets transmitted, vector(packetBytes)"
vector 140 RandomTestingTopology.spine2.eth[0].mac rxPkOk:vector(packetBytes) ETV
attr interpolationmode none
attr source rxPkOk
attr title "packets received OK, vector(packetBytes)"
vector 141 RandomTestingTopology.spine2.eth[0].mac passedUpPk:vector(packetBytes) ETV
attr interpolationmode none
attr source packetSentToUpper
attr title "packets passed to higher layer, vector(packetBytes)"
vector 142 RandomTestingTopology.spine2.eth[0].encap decapPk:vector(packetBytes) ETV
attr interpolationmode none
attr source decapPk
attr title "packets decapsulated, vector(packetBytes)"
vector 143 RandomTestingTopology.spine2.ipv4.arp arpReplySent:vector(packetBytes) ETV
attr source arpReplySent
attr title "ARP replies sent, vector(packetBytes)"
vector 144 RandomTestingTopology.spine2.eth[0].encap encapPk:vector(packetBytes) ETV
attr interpolationmode none
attr source encapPk
attr title "packets encapsulated, vector(packetBytes)"
vector 145 RandomTestingTopology.spine2.eth[0].mac packetReceivedFromUpper:vector(packetBytes) ETV
attr interpolationmode none
attr source packetReceivedFromUpper
attr title "packet bytes from higher layer, vector(packetBytes)"
vector 146 RandomTestingTopology.spine2.eth[0].mac.queue packetPushed:vector(packetBytes) ETV
attr interpolationmode none
attr title "packet pushed, vector(packetBytes)"
vector 147 RandomTestingTopology.spine2.eth[0].mac.queue queueLength:vector ETV
attr interpolationmode sample-hold
attr source "count(packetPushed) - count(packetPopped) - count(packetRemoved) - count(packetDropped)"
attr title "queue length, vector"
vector 148 RandomTestingTopology.spine2.eth[0].mac.queue packetPopped:vector(packetBytes) ETV
attr interpolationmode none
attr title "packet popped, vector(packetBytes)"
vector 149 RandomTestingTopology.spine2.eth[0].mac.queue queueingTime:vector ETV
attr interpolationmode none
attr source queueingTime(packetPopped)
attr title "queueing times, vector"
attr unit s
vector 150 RandomTestingTopology.spine2.eth[0].mac txPk:vector(packetBytes) ETV
attr interpolationmode none
attr source packetSentToLower
attr title "packets transmitted, vector(packetBytes)"
vector 151 RandomTestingTopology.leaf1.eth[1].mac rxPkOk:vector(packetBytes) ETV
attr interpolationmode none
attr source rxPkOk
attr title "packets received OK, vector(packetBytes)"
vector 152 RandomTestingTopology.leaf1.eth[1].mac passedUpPk:vector(packetBytes) ETV
attr interpolationmode none
attr source packetSentToUpper
attr title "packets passed to higher layer, vector(packetBytes)"
vector 153 RandomTestingTopology.leaf1.eth[1].encap decapPk:vector(packetBytes) ETV
attr interpolationmode none
attr source decapPk
attr title "packets decapsulated, vector(packetBytes)"
vector 154 RandomTestingTopology.spine2.ipv4.arp arpRequestSent:vector(packetBytes) ETV
attr source arpRequestSent
attr title "ARP request sent, vector(packetBytes)"
vector 155 RandomTestingTopology.spine2.eth[1].encap encapPk:vector(packetBytes) ETV
attr interpolationmode none
attr source encapPk
attr title "packets encapsulated, vector(packetBytes)"
vector 156 RandomTestingTopology.spine2.eth[1].mac packetReceivedFromUpper:vector(packetBytes) ETV
attr interpolationmode none
attr source packetReceivedFromUpper
attr title "packet bytes from higher layer, vector(packetBytes)"
vector 157 RandomTestingTopology.spine2.eth[1].mac.queue packetPushed:vector(packetBytes) ETV
attr interpolationmode none
attr title "packet pushed, vector(packetBytes)"
vector 158 RandomTestingTopology.spine2.eth[1].mac.queue queueLength:vector ETV
attr interpolationmode sample-hold
attr source "count(packetPushed) - count(packetPopped) - count(packetRemoved) - count(packetDropped)"
attr title "queue length, vector"
vector 159 RandomTestingTopology.spine2.eth[1].mac.queue packetPopped:vector(packetBytes) ETV
attr interpolationmode none
attr title "packet popped, vector(packetBytes)"
vector 160 RandomTestingTopology.spine2.eth[1].mac.queue queueingTime:vector ETV
attr interpolationmode none
attr source queueingTime(packetPopped)
attr title "queueing times, vector"
attr unit s
vector 161 RandomTestingTopology.spine2.eth[1].mac txPk:vector(packetBytes) ETV
attr interpolationmode none
attr source packetSentToLower
attr title "packets transmitted, vector(packetBytes)"
vector 162 RandomTestingTopology.leaf2.eth[1].mac rxPkOk:vector(packetBytes) ETV
attr interpolationmode none
attr source rxPkOk
attr title "packets received OK, vector(packetBytes)"
vector 163 RandomTestingTopology.leaf2.eth[1].mac passedUpPk:vector(packetBytes) ETV
attr interpolationmode none
attr source packetSentToUpper
attr title "packets passed to higher layer, vector(packetBytes)"
vector 164 RandomTestingTopology.leaf2.eth[1].encap decapPk:vector(packetBytes) ETV
attr interpolationmode none
attr source decapPk
attr title "packets decapsulated, vector(packetBytes)"
vector 165 RandomTestingTopology.leaf2.eth[1].encap encapPk:vector(packetBytes) ETV
attr interpolationmode none
attr source encapPk
attr title "packets encapsulated, vector(packetBytes)"
vector 166 RandomTestingTopology.leaf2.eth[1].mac packetReceivedFromUpper:vector(packetBytes) ETV
attr interpolationmode none
attr source packetReceivedFromUpper
attr title "packet bytes from higher layer, vector(packetBytes)"
vector 167 RandomTestingTopology.leaf2.eth[1].mac.queue packetPushed:vector(packetBytes) ETV
attr interpolationmode none
attr title "packet pushed, vector(packetBytes)"
vector 168 RandomTestingTopology.leaf2.eth[1].mac.queue queueLength:vector ETV
attr interpolationmode sample-hold
attr source "count(packetPushed) - count(packetPopped) - count(packetRemoved) - count(packetDropped)"
attr title "queue length, vector"
vector 169 RandomTestingTopology.leaf2.eth[1].mac.queue packetPopped:vector(packetBytes) ETV
attr interpolationmode none
attr title "packet popped, vector(packetBytes)"
vector 170 RandomTestingTopology.leaf2.eth[1].mac.queue queueingTime:vector ETV
attr interpolationmode none
attr source queueingTime(packetPopped)
attr title "queueing times, vector"
attr unit s
vector 171 RandomTestingTopology.leaf2.eth[1].mac txPk:vector(packetBytes) ETV
attr interpolationmode none
attr source packetSentToLower
attr title "packets transmitted, vector(packetBytes)"
vector 172 RandomTestingTopology.spine2.eth[1].mac rxPkOk:vector(packetBytes) ETV
attr interpolationmode none
attr source rxPkOk
attr title "packets received OK, vector(packetBytes)"
vector 173 RandomTestingTopology.spine2.eth[1].mac passedUpPk:vector(packetBytes) ETV
attr interpolationmode none
attr source packetSentToUpper
attr title "packets passed to higher layer, vector(packetBytes)"
vector 174 RandomTestingTopology.spine2.eth[1].encap decapPk:vector(packetBytes) ETV
attr interpolationmode none
attr source decapPk
attr title "packets decapsulated, vector(packetBytes)"
0	1	0.548813502304	0
0	148	1.548813502304	1
0	252	2.548813502304	2
0	342	3.548813502304	3
0	404	4.548813502304	4
0	466	5.548813502304	5
0	528	6.548813502304	6
0	590	7.548813502304	7
0	652	8.548813502304	8
0	714	9.548813502304	9
0	776	10.548813502304	10
0	838	11.548813502304	11
0	900	12.548813502304	12
0	962	13.548813502304	13
0	1024	14.548813502304	14
0	1086	15.548813502304	15
0	1148	16.548813502304	16
0	1210	17.548813502304	17
0	1272	18.548813502304	18
0	1334	19.548813502304	19
0	1396	20.548813502304	20
0	1458	21.548813502304	21
0	1520	22.548813502304	22
0	1582	23.548813502304	23
0	1644	24.548813502304	24
0	1706	25.548813502304	25
0	1768	26.548813502304	26
0	1830	27.548813502304	27
0	1892	28.548813502304	28
0	1954	29.548813502304	29
0	2016	30.548813502304	30
0	2078	31.548813502304	31
0	2140	32.548813502304	32
0	2202	33.548813502304	33
0	2264	34.548813502304	34
0	2326	35.548813502304	35
0	2388	36.548813502304	36
0	2450	37.548813502304	37
0	2512	38.548813502304	38
0	2574	39.548813502304	39
0	2636	40.548813502304	40
0	2698	41.548813502304	41
0	2760	42.548813502304	42
0	2822	43.548813502304	43
0	2884	44.548813502304	44
0	2946	45.548813502304	45
0	3008	46.548813502304	46
0	3070	47.548813502304	47
0	3132	48.548813502304	48
0	3194	49.548813502304	49
0	3256	50.548813502304	50
0	3318	51.548813502304	51
0	3380	52.548813502304	52
0	3442	53.548813502304	53
0	3504	54.548813502304	54
0	3566	55.548813502304	55
0	3628	56.548813502304	56
0	3690	57.548813502304	57
0	3752	58.548813502304	58
0	3814	59.548813502304	59
0	3876	60.548813502304	60
0	3938	61.548813502304	61
0	4000	62.548813502304	62
0	4062	63.548813502304	63
0	4124	64.548813502304	64
0	4186	65.548813502304	65
0	4248	66.548813502304	66
0	4310	67.548813502304	67
0	4372	68.548813502304	68
0	4434	69.548813502304	69
0	4496	70.548813502304	70
0	4558	71.548813502304	71
0	4620	72.548813502304	72
0	4682	73.548813502304	73
0	4744	74.548813502304	74
0	4806	75.548813502304	75
0	4868	76.548813502304	76
0	4930	77.548813502304	77
0	4992	78.548813502304	78
0	5054	79.548813502304	79
0	5116	80.548813502304	80
0	5178	81.548813502304	81
0	5240	82.548813502304	82
0	5302	83.548813502304	83
0	5364	84.548813502304	84
0	5426	85.548813502304	85
0	5488	86.548813502304	86
0	5550	87.548813502304	87
0	5612	88.548813502304	88
0	5674	89.548813502304	89
0	5736	90.548813502304	90
0	5798	91.548813502304	91
0	5860	92.548813502304	92
0	5922	93.548813502304	93
0	5984	94.548813502304	94
0	6046	95.548813502304	95
0	6108	96.548813502304	96
0	6170	97.548813502304	97
0	6232	98.548813502304	98
0	6294	99.548813502304	99
1	3	0.548813502304	28
2	4	0.548813502304	28
2	17	0.548825122304	84
2	150	1.548813502304	84
2	254	2.548813502304	84
2	344	3.548813502304	84
2	406	4.548813502304	84
2	468	5.548813502304	84
2	530	6.548813502304	84
2	592	7.548813502304	84
2	654	8.548813502304	84
2	716	9.548813502304	84
2	778	10.548813502304	84
2	840	11.548813502304	84
2	902	12.548813502304	84
2	964	13.548813502304	84
2	1026	14.548813502304	84
2	1088	15.548813502304	84
2	1150	16.548813502304	84
2	1212	17.548813502304	84
2	1274	18.548813502304	84
2	1336	19.548813502304	84
2	1398	20.548813502304	84
2	1460	21.548813502304	84
2	1522	22.548813502304	84
2	1584	23.548813502304	84
2	1646	24.548813502304	84
2	1708	25.548813502304	84
2	1770	26.548813502304	84
2	1832	27.548813502304	84
2	1894	28.548813502304	84
2	1956	29.548813502304	84
2	2018	30.548813502304	84
2	2080	31.548813502304	84
2	2142	32.548813502304	84
2	2204	33.548813502304	84
2	2266	34.548813502304	84
2	2328	35.548813502304	84
2	2390	36.548813502304	84
2	2452	37.548813502304	84
2	2514	38.548813502304	84
2	2576	39.548813502304	84
2	2638	40.548813502304	84
2	2700	41.548813502304	84
2	2762	42.548813502304	84
2	2824	43.548813502304	84
2	2886	44.548813502304	84
2	2948	45.548813502304	84
2	3010	46.548813502304	84
2	3072	47.548813502304	84
2	3134	48.548813502304	84
2	3196	49.548813502304	84
2	3258	50.548813502304	84
2	3320	51.548813502304	84
2	3382	52.548813502304	84
2	3444	53.548813502304	84
2	3506	54.548813502304	84
2	3568	55.548813502304	84
2	3630	56.548813502304	84
2	3692	57.548813502304	84
2	3754	58.548813502304	84
2	3816	59.548813502304	84
2	3878	60.548813502304	84
2	3940	61.548813502304	84
2	4002	62.548813502304	84
2	4064	63.548813502304	84
2	4126	64.548813502304	84
2	4188	65.548813502304	84
2	4250	66.548813502304	84
2	4312	67.548813502304	84
2	4374	68.548813502304	84
2	4436	69.548813502304	84
2	4498	70.548813502304	84
2	4560	71.548813502304	84
2	4622	72.548813502304	84
2	4684	73.548813502304	84
2	4746	74.548813502304	84
2	4808	75.548813502304	84
2	4870	76.548813502304	84
2	4932	77.548813502304	84
2	4994	78.548813502304	84
2	5056	79.548813502304	84
2	5118	80.548813502304	84
2	5180	81.548813502304	84
2	5242	82.548813502304	84
2	5304	83.548813502304	84
2	5366	84.548813502304	84
2	5428	85.548813502304	84
2	5490	86.548813502304	84
2	5552	87.548813502304	84
2	5614	88.548813502304	84
2	5676	89.548813502304	84
2	5738	90.548813502304	84
2	5800	91.548813502304	84
2	5862	92.548813502304	84
2	5924	93.548813502304	84
2	5986	94.548813502304	84
2	6048	95.548813502304	84
2	6110	96.548813502304	84
2	6172	97.548813502304	84
2	6234	98.548813502304	84
2	6296	99.548813502304	84
3	5	0.548813502304	46
3	18	0.548825122304	102
3	151	1.548813502304	102
3	255	2.548813502304	102
3	345	3.548813502304	102
3	407	4.548813502304	102
3	469	5.548813502304	102
3	531	6.548813502304	102
3	593	7.548813502304	102
3	655	8.548813502304	102
3	717	9.548813502304	102
3	779	10.548813502304	102
3	841	11.548813502304	102
3	903	12.548813502304	102
3	965	13.548813502304	102
3	1027	14.548813502304	102
3	1089	15.548813502304	102
3	1151	16.548813502304	102
3	1213	17.548813502304	102
3	1275	18.548813502304	102
3	1337	19.548813502304	102
3	1399	20.548813502304	102
3	1461	21.548813502304	102
3	1523	22.548813502304	102
3	1585	23.548813502304	102
3	1647	24.548813502304	102
3	1709	25.548813502304	102
3	1771	26.548813502304	102
3	1833	27.548813502304	102
3	1895	28.548813502304	102
3	1957	29.548813502304	102
3	2019	30.548813502304	102
3	2081	31.548813502304	102
3	2143	32.548813502304	102
3	2205	33.548813502304	102
3	2267	34.548813502304	102
3	2329	35.548813502304	102
3	2391	36.548813502304	102
3	2453	37.548813502304	102
3	2515	38.548813502304	102
3	2577	39.548813502304	102
3	2639	40.548813502304	102
3	2701	41.548813502304	102
3	2763	42.548813502304	102
3	2825	43.548813502304	102
3	2887	44.548813502304	102
3	2949	45.548813502304	102
3	3011	46.548813502304	102
3	3073	47.548813502304	102
3	3135	48.548813502304	102
3	3197	49.548813502304	102
3	3259	50.548813502304	102
3	3321	51.548813502304	102
3	3383	52.548813502304	102
3	3445	53.548813502304	102
3	3507	54.548813502304	102
3	3569	55.548813502304	102
3	3631	56.548813502304	102
3	3693	57.548813502304	102
3	3755	58.548813502304	102
3	3817	59.548813502304	102
3	3879	60.548813502304	102
3	3941	61.548813502304	102
3	4003	62.548813502304	102
3	4065	63.548813502304	102
3	4127	64.548813502304	102
3	4189	65.548813502304	102
3	4251	66.548813502304	102
3	4313	67.548813502304	102
3	4375	68.548813502304	102
3	4437	69.548813502304	102
3	4499	70.548813502304	102
3	4561	71.548813502304	102
3	4623	72.548813502304	102
3	4685	73.548813502304	102
3	4747	74.548813502304	102
3	4809	75.548813502304	102
3	4871	76.548813502304	102
3	4933	77.548813502304	102
3	4995	78.548813502304	102
3	5057	79.548813502304	102
3	5119	80.548813502304	102
3	5181	81.548813502304	102
3	5243	82.548813502304	102
3	5305	83.548813502304	102
3	5367	84.548813502304	102
3	5429	85.548813502304	102
3	5491	86.548813502304	102
3	5553	87.548813502304	102
3	5615	88.548813502304	102
3	5677	89.548813502304	102
3	5739	90.548813502304	102
3	5801	91.548813502304	102
3	5863	92.548813502304	102
3	5925	93.548813502304	102
3	5987	94.548813502304	102
3	6049	95.548813502304	102
3	6111	96.548813502304	102
3	6173	97.548813502304	102
3	6235	98.548813502304	102
3	6297	99.548813502304	102
4	5	0.548813502304	64
4	18	0.548825122304	102
4	151	1.548813502304	102
4	255	2.548813502304	102
4	345	3.548813502304	102
4	407	4.548813502304	102
4	469	5.548813502304	102
4	531	6.548813502304	102
4	593	7.548813502304	102
4	655	8.548813502304	102
4	717	9.548813502304	102
4	779	10.548813502304	102
4	841	11.548813502304	102
4	903	12.548813502304	102
4	965	13.548813502304	102
4	1027	14.548813502304	102
4	1089	15.548813502304	102
4	1151	16.548813502304	102
4	1213	17.548813502304	102
4	1275	18.548813502304	102
4	1337	19.548813502304	102
4	1399	20.548813502304	102
4	1461	21.548813502304	102
4	1523	22.548813502304	102
4	1585	23.548813502304	102
4	1647	24.548813502304	102
4	1709	25.548813502304	102
4	1771	26.548813502304	102
4	1833	27.548813502304	102
4	1895	28.548813502304	102
4	1957	29.548813502304	102
4	2019	30.548813502304	102
4	2081	31.548813502304	102
4	2143	32.548813502304	102
4	2205	33.548813502304	102
4	2267	34.548813502304	102
4	2329	35.548813502304	102
4	2391	36.548813502304	102
4	2453	37.548813502304	102
4	2515	38.548813502304	102
4	2577	39.548813502304	102
4	2639	40.548813502304	102
4	2701	41.548813502304	102
4	2763	42.548813502304	102
4	2825	43.548813502304	102
4	2887	44.548813502304	102
4	2949	45.548813502304	102
4	3011	46.548813502304	102
4	3073	47.548813502304	102
4	3135	48.548813502304	102
4	3197	49.548813502304	102
4	3259	50.548813502304	102
4	3321	51.548813502304	102
4	3383	52.548813502304	102
4	3445	53.548813502304	102
4	3507	54.548813502304	102
4	3569	55.548813502304	102
4	3631	56.548813502304	102
4	3693	57.548813502304	102
4	3755	58.548813502304	102
4	3817	59.548813502304	102
4	3879	60.548813502304	102
4	3941	61.548813502304	102
4	4003	62.548813502304	102
4	4065	63.548813502304	102
4	4127	64.548813502304	102
4	4189	65.548813502304	102
4	4251	66.548813502304	102
4	4313	67.548813502304	102
4	4375	68.548813502304	102
4	4437	69.548813502304	102
4	4499	70.548813502304	102
4	4561	71.548813502304	102
4	4623	72.548813502304	102
4	4685	73.548813502304	102
4	4747	74.548813502304	102
4	4809	75.548813502304	102
4	4871	76.548813502304	102
4	4933	77.548813502304	102
4	4995	78.548813502304	102
4	5057	79.548813502304	102
4	5119	80.548813502304	102
4	5181	81.548813502304	102
4	5243	82.548813502304	102
4	5305	83.548813502304	102
4	5367	84.548813502304	102
4	5429	85.548813502304	102
4	5491	86.548813502304	102
4	5553	87.548813502304	102
4	5615	88.548813502304	102
4	5677	89.548813502304	102
4	5739	90.548813502304	102
4	5801	91.548813502304	102
4	5863	92.548813502304	102
4	5925	93.548813502304	102
4	5987	94.548813502304	102
4	6049	95.548813502304	102
4	6111	96.548813502304	102
4	6173	97.548813502304	102
4	6235	98.548813502304	102
4	6297	99.548813502304	102
5	5	0.548813502304	1
5	5	0.548813502304	0
5	18	0.548825122304	1
5	18	0.548825122304	0
5	151	1.548813502304	1
5	151	1.548813502304	0
5	255	2.548813502304	1
5	255	2.548813502304	0
5	345	3.548813502304	1
5	345	3.548813502304	0
5	407	4.548813502304	1
5	407	4.548813502304	0
5	469	5.548813502304	1
5	469	5.548813502304	0
5	531	6.548813502304	1
5	531	6.548813502304	0
5	593	7.548813502304	1
5	593	7.548813502304	0
5	655	8.548813502304	1
5	655	8.548813502304	0
5	717	9.548813502304	1
5	717	9.548813502304	0
5	779	10.548813502304	1
5	779	10.548813502304	0
5	841	11.548813502304	1
5	841	11.548813502304	0
5	903	12.548813502304	1
5	903	12.548813502304	0
5	965	13.548813502304	1
5	965	13.548813502304	0
5	1027	14.548813502304	1
5	1027	14.548813502304	0
5	1089	15.548813502304	1
5	1089	15.548813502304	0
5	1151	16.548813502304	1
5	1151	16.548813502304	0
5	1213	17.548813502304	1
5	1213	17.548813502304	0
5	1275	18.548813502304	1
5	1275	18.548813502304	0
5	1337	19.548813502304	1
5	1337	19.548813502304	0
5	1399	20.548813502304	1
5	1399	20.548813502304	0
5	1461	21.548813502304	1
5	1461	21.548813502304	0
5	1523	22.548813502304	1
5	1523	22.548813502304	0
5	1585	23.548813502304	1
5	1585	23.548813502304	0
5	1647	24.548813502304	1
5	1647	24.548813502304	0
5	1709	25.548813502304	1
5	1709	25.548813502304	0
5	1771	26.548813502304	1
5	1771	26.548813502304	0
5	1833	27.548813502304	1
5	1833	27.548813502304	0
5	1895	28.548813502304	1
5	1895	28.548813502304	0
5	1957	29.548813502304	1
5	1957	29.548813502304	0
5	2019	30.548813502304	1
5	2019	30.548813502304	0
5	2081	31.548813502304	1
5	2081	31.548813502304	0
5	2143	32.548813502304	1
5	2143	32.548813502304	0
5	2205	33.548813502304	1
5	2205	33.548813502304	0
5	2267	34.548813502304	1
5	2267	34.548813502304	0
5	2329	35.548813502304	1
5	2329	35.548813502304	0
5	2391	36.548813502304	1
5	2391	36.548813502304	0
5	2453	37.548813502304	1
5	2453	37.548813502304	0
5	2515	38.548813502304	1
5	2515	38.548813502304	0
5	2577	39.548813502304	1
5	2577	39.548813502304	0
5	2639	40.548813502304	1
5	2639	40.548813502304	0
5	2701	41.548813502304	1
5	2701	41.548813502304	0
5	2763	42.548813502304	1
5	2763	42.548813502304	0
5	2825	43.548813502304	1
5	2825	43.548813502304	0
5	2887	44.548813502304	1
5	2887	44.548813502304	0
5	2949	45.548813502304	1
5	2949	45.548813502304	0
5	3011	46.548813502304	1
5	3011	46.548813502304	0
5	3073	47.548813502304	1
5	3073	47.548813502304	0
5	3135	48.548813502304	1
5	3135	48.548813502304	0
5	3197	49.548813502304	1
5	3197	49.548813502304	0
5	3259	50.548813502304	1
5	3259	50.548813502304	0
5	3321	51.548813502304	1
5	3321	51.548813502304	0
5	3383	52.548813502304	1
5	3383	52.548813502304	0
5	3445	53.548813502304	1
5	3445	53.548813502304	0
5	3507	54.548813502304	1
5	3507	54.548813502304	0
5	3569	55.548813502304	1
5	3569	55.548813502304	0
5	3631	56.548813502304	1
5	3631	56.548813502304	0
5	3693	57.548813502304	1
5	3693	57.548813502304	0
5	3755	58.548813502304	1
5	3755	58.548813502304	0
5	3817	59.548813502304	1
5	3817	59.548813502304	0
5	3879	60.548813502304	1
5	3879	60.548813502304	0
5	3941	61.548813502304	1
5	3941	61.548813502304	0
5	4003	62.548813502304	1
5	4003	62.548813502304	0
5	4065	63.548813502304	1
5	4065	63.548813502304	0
5	4127	64.548813502304	1
5	4127	64.548813502304	0
5	4189	65.548813502304	1
5	4189	65.548813502304	0
5	4251	66.548813502304	1
5	4251	66.548813502304	0
5	4313	67.548813502304	1
5	4313	67.548813502304	0
5	4375	68.548813502304	1
5	4375	68.548813502304	0
5	4437	69.548813502304	1
5	4437	69.548813502304	0
5	4499	70.548813502304	1
5	4499	70.548813502304	0
5	4561	71.548813502304	1
5	4561	71.548813502304	0
5	4623	72.548813502304	1
5	4623	72.548813502304	0
5	4685	73.548813502304	1
5	4685	73.548813502304	0
5	4747	74.548813502304	1
5	4747	74.548813502304	0
5	4809	75.548813502304	1
5	4809	75.548813502304	0
5	4871	76.548813502304	1
5	4871	76.548813502304	0
5	4933	77.548813502304	1
5	4933	77.548813502304	0
5	4995	78.548813502304	1
5	4995	78.548813502304	0
5	5057	79.548813502304	1
5	5057	79.548813502304	0
5	5119	80.548813502304	1
5	5119	80.548813502304	0
5	5181	81.548813502304	1
5	5181	81.548813502304	0
5	5243	82.548813502304	1
5	5243	82.548813502304	0
5	5305	83.548813502304	1
5	5305	83.548813502304	0
5	5367	84.548813502304	1
5	5367	84.548813502304	0
5	5429	85.548813502304	1
5	5429	85.548813502304	0
5	5491	86.548813502304	1
5	5491	86.548813502304	0
5	5553	87.548813502304	1
5	5553	87.548813502304	0
5	5615	88.548813502304	1
5	5615	88.548813502304	0
5	5677	89.548813502304	1
5	5677	89.548813502304	0
5	5739	90.548813502304	1
5	5739	90.548813502304	0
5	5801	91.548813502304	1
5	5801	91.548813502304	0
5	5863	92.548813502304	1
5	5863	92.548813502304	0
5	5925	93.548813502304	1
5	5925	93.548813502304	0
5	5987	94.548813502304	1
5	5987	94.548813502304	0
5	6049	95.548813502304	1
5	6049	95.548813502304	0
5	6111	96.548813502304	1
5	6111	96.548813502304	0
5	6173	97.548813502304	1
5	6173	97.548813502304	0
5	6235	98.548813502304	1
5	6235	98.548813502304	0
5	6297	99.548813502304	1
5	6297	99.548813502304	0
6	5	0.548813502304	64
6	18	0.548825122304	102
6	151	1.548813502304	102
6	255	2.548813502304	102
6	345	3.548813502304	102
6	407	4.548813502304	102
6	469	5.548813502304	102
6	531	6.548813502304	102
6	593	7.548813502304	102
6	655	8.548813502304	102
6	717	9.548813502304	102
6	779	10.548813502304	102
6	841	11.548813502304	102
6	903	12.548813502304	102
6	965	13.548813502304	102
6	1027	14.548813502304	102
6	1089	15.548813502304	102
6	1151	16.548813502304	102
6	1213	17.548813502304	102
6	1275	18.548813502304	102
6	1337	19.548813502304	102
6	1399	20.548813502304	102
6	1461	21.548813502304	102
6	1523	22.548813502304	102
6	1585	23.548813502304	102
6	1647	24.548813502304	102
6	1709	25.548813502304	102
6	1771	26.548813502304	102
6	1833	27.548813502304	102
6	1895	28.548813502304	102
6	1957	29.548813502304	102
6	2019	30.548813502304	102
6	2081	31.548813502304	102
6	2143	32.548813502304	102
6	2205	33.548813502304	102
6	2267	34.548813502304	102
6	2329	35.548813502304	102
6	2391	36.548813502304	102
6	2453	37.548813502304	102
6	2515	38.548813502304	102
6	2577	39.548813502304	102
6	2639	40.548813502304	102
6	2701	41.548813502304	102
6	2763	42.548813502304	102
6	2825	43.548813502304	102
6	2887	44.548813502304	102
6	2949	45.548813502304	102
6	3011	46.548813502304	102
6	3073	47.548813502304	102
6	3135	48.548813502304	102
6	3197	49.548813502304	102
6	3259	50.548813502304	102
6	3321	51.548813502304	102
6	3383	52.548813502304	102
6	3445	53.548813502304	102
6	3507	54.548813502304	102
6	3569	55.548813502304	102
6	3631	56.548813502304	102
6	3693	57.548813502304	102
6	3755	58.548813502304	102
6	3817	59.548813502304	102
6	3879	60.548813502304	102
6	3941	61.548813502304	102
6	4003	62.548813502304	102
6	4065	63.548813502304	102
6	4127	64.548813502304	102
6	4189	65.548813502304	102
6	4251	66.548813502304	102
6	4313	67.548813502304	102
6	4375	68.548813502304	102
6	4437	69.548813502304	102
6	4499	70.548813502304	102
6	4561	71.548813502304	102
6	4623	72.548813502304	102
6	4685	73.548813502304	102
6	4747	74.548813502304	102
6	4809	75.548813502304	102
6	4871	76.548813502304	102
6	4933	77.548813502304	102
6	4995	78.548813502304	102
6	5057	79.548813502304	102
6	5119	80.548813502304	102
6	5181	81.548813502304	102
6	5243	82.548813502304	102
6	5305	83.548813502304	102
6	5367	84.548813502304	102
6	5429	85.548813502304	102
6	5491	86.548813502304	102
6	5553	87.548813502304	102
6	5615	88.548813502304	102
6	5677	89.548813502304	102
6	5739	90.548813502304	102
6	5801	91.548813502304	102
6	5863	92.548813502304	102
6	5925	93.548813502304	102
6	5987	94.548813502304	102
6	6049	95.548813502304	102
6	6111	96.548813502304	102
6	6173	97.548813502304	102
6	6235	98.548813502304	102
6	6297	99.548813502304	102
7	5	0.548813502304	0
7	18	0.548825122304	0
7	151	1.548813502304	0
7	255	2.548813502304	0
7	345	3.548813502304	0
7	407	4.548813502304	0
7	469	5.548813502304	0
7	531	6.548813502304	0
7	593	7.548813502304	0
7	655	8.548813502304	0
7	717	9.548813502304	0
7	779	10.548813502304	0
7	841	11.548813502304	0
7	903	12.548813502304	0
7	965	13.548813502304	0
7	1027	14.548813502304	0
7	1089	15.548813502304	0
7	1151	16.548813502304	0
7	1213	17.548813502304	0
7	1275	18.548813502304	0
7	1337	19.548813502304	0
7	1399	20.548813502304	0
7	1461	21.548813502304	0
7	1523	22.548813502304	0
7	1585	23.548813502304	0
7	1647	24.548813502304	0
7	1709	25.548813502304	0
7	1771	26.548813502304	0
7	1833	27.548813502304	0
7	1895	28.548813502304	0
7	1957	29.548813502304	0
7	2019	30.548813502304	0
7	2081	31.548813502304	0
7	2143	32.548813502304	0
7	2205	33.548813502304	0
7	2267	34.548813502304	0
7	2329	35.548813502304	0
7	2391	36.548813502304	0
7	2453	37.548813502304	0
7	2515	38.548813502304	0
7	2577	39.548813502304	0
7	2639	40.548813502304	0
7	2701	41.548813502304	0
7	2763	42.548813502304	0
7	2825	43.548813502304	0
7	2887	44.548813502304	0
7	2949	45.548813502304	0
7	3011	46.548813502304	0
7	3073	47.548813502304	0
7	3135	48.548813502304	0
7	3197	49.548813502304	0
7	3259	50.548813502304	0
7	3321	51.548813502304	0
7	3383	52.548813502304	0
7	3445	53.548813502304	0
7	3507	54.548813502304	0
7	3569	55.548813502304	0
7	3631	56.548813502304	0
7	3693	57.548813502304	0
7	3755	58.548813502304	0
7	3817	59.548813502304	0
7	3879	60.548813502304	0
7	3941	61.548813502304	0
7	4003	62.548813502304	0
7	4065	63.548813502304	0
7	4127	64.548813502304	0
7	4189	65.548813502304	0
7	4251	66.548813502304	0
7	4313	67.548813502304	0
7	4375	68.548813502304	0
7	4437	69.548813502304	0
7	4499	70.548813502304	0
7	4561	71.548813502304	0
7	4623	72.548813502304	0
7	4685	73.548813502304	0
7	4747	74.548813502304	0
7	4809	75.548813502304	0
7	4871	76.548813502304	0
7	4933	77.548813502304	0
7	4995	78.548813502304	0
7	5057	79.548813502304	0
7	5119	80.548813502304	0
7	5181	81.548813502304	0
7	5243	82.548813502304	0
7	5305	83.548813502304	0
7	5367	84.548813502304	0
7	5429	85.548813502304	0
7	5491	86.548813502304	0
7	5553	87.548813502304	0
7	5615	88.548813502304	0
7	5677	89.548813502304	0
7	5739	90.548813502304	0
7	5801	91.548813502304	0
7	5863	92.548813502304	0
7	5925	93.548813502304	0
7	5987	94.548813502304	0
7	6049	95.548813502304	0
7	6111	96.548813502304	0
7	6173	97.548813502304	0
7	6235	98.548813502304	0
7	6297	99.548813502304	0
8	6	0.548819262304	64
8	20	0.548833922304	102
8	152	1.548822302304	102
8	256	2.548822302304	102
8	346	3.548822302304	102
8	408	4.548822302304	102
8	470	5.548822302304	102
8	532	6.548822302304	102
8	594	7.548822302304	102
8	656	8.548822302304	102
8	718	9.548822302304	102
8	780	10.548822302304	102
8	842	11.548822302304	102
8	904	12.548822302304	102
8	966	13.548822302304	102
8	1028	14.548822302304	102
8	1090	15.548822302304	102
8	1152	16.548822302304	102
8	1214	17.548822302304	102
8	1276	18.548822302304	102
8	1338	19.548822302304	102
8	1400	20.548822302304	102
8	1462	21.548822302304	102
8	1524	22.548822302304	102
8	1586	23.548822302304	102
8	1648	24.548822302304	102
8	1710	25.548822302304	102
8	1772	26.548822302304	102
8	1834	27.548822302304	102
8	1896	28.548822302304	102
8	1958	29.548822302304	102
8	2020	30.548822302304	102
8	2082	31.548822302304	102
8	2144	32.548822302304	102
8	2206	33.548822302304	102
8	2268	34.548822302304	102
8	2330	35.548822302304	102
8	2392	36.548822302304	102
8	2454	37.548822302304	102
8	2516	38.548822302304	102
8	2578	39.548822302304	102
8	2640	40.548822302304	102
8	2702	41.548822302304	102
8	2764	42.548822302304	102
8	2826	43.548822302304	102
8	2888	44.548822302304	102
8	2950	45.548822302304	102
8	3012	46.548822302304	102
8	3074	47.548822302304	102
8	3136	48.548822302304	102
8	3198	49.548822302304	102
8	3260	50.548822302304	102
8	3322	51.548822302304	102
8	3384	52.548822302304	102
8	3446	53.548822302304	102
8	3508	54.548822302304	102
8	3570	55.548822302304	102
8	3632	56.548822302304	102
8	3694	57.548822302304	102
8	3756	58.548822302304	102
8	3818	59.548822302304	102
8	3880	60.548822302304	102
8	3942	61.548822302304	102
8	4004	62.548822302304	102
8	4066	63.548822302304	102
8	4128	64.548822302304	102
8	4190	65.548822302304	102
8	4252	66.548822302304	102
8	4314	67.548822302304	102
8	4376	68.548822302304	102
8	4438	69.548822302304	102
8	4500	70.548822302304	102
8	4562	71.548822302304	102
8	4624	72.548822302304	102
8	4686	73.548822302304	102
8	4748	74.548822302304	102
8	4810	75.548822302304	102
8	4872	76.548822302304	102
8	4934	77.548822302304	102
8	4996	78.548822302304	102
8	5058	79.548822302304	102
8	5120	80.548822302304	102
8	5182	81.548822302304	102
8	5244	82.548822302304	102
8	5306	83.548822302304	102
8	5368	84.548822302304	102
8	5430	85.548822302304	102
8	5492	86.548822302304	102
8	5554	87.548822302304	102
8	5616	88.548822302304	102
8	5678	89.548822302304	102
8	5740	90.548822302304	102
8	5802	91.548822302304	102
8	5864	92.548822302304	102
8	5926	93.548822302304	102
8	5988	94.548822302304	102
8	6050	95.548822302304	102
8	6112	96.548822302304	102
8	6174	97.548822302304	102
8	6236	98.548822302304	102
8	6298	99.548822302304	102
9	7	0.548819312304	64
9	21	0.548833972304	102
9	153	1.548822352304	102
9	257	2.548822352304	102
9	347	3.548822352304	102
9	409	4.548822352304	102
9	471	5.548822352304	102
9	533	6.548822352304	102
9	595	7.548822352304	102
9	657	8.548822352304	102
9	719	9.548822352304	102
9	781	10.548822352304	102
9	843	11.548822352304	102
9	905	12.548822352304	102
9	967	13.548822352304	102
9	1029	14.548822352304	102
9	1091	15.548822352304	102
9	1153	16.548822352304	102
9	1215	17.548822352304	102
9	1277	18.548822352304	102
9	1339	19.548822352304	102
9	1401	20.548822352304	102
9	1463	21.548822352304	102
9	1525	22.548822352304	102
9	1587	23.548822352304	102
9	1649	24.548822352304	102
9	1711	25.548822352304	102
9	1773	26.548822352304	102
9	1835	27.548822352304	102
9	1897	28.548822352304	102
9	1959	29.548822352304	102
9	2021	30.548822352304	102
9	2083	31.548822352304	102
9	2145	32.548822352304	102
9	2207	33.548822352304	102
9	2269	34.548822352304	102
9	2331	35.548822352304	102
9	2393	36.548822352304	102
9	2455	37.548822352304	102
9	2517	38.548822352304	102
9	2579	39.548822352304	102
9	2641	40.548822352304	102
9	2703	41.548822352304	102
9	2765	42.548822352304	102
9	2827	43.548822352304	102
9	2889	44.548822352304	102
9	2951	45.548822352304	102
9	3013	46.548822352304	102
9	3075	47.548822352304	102
9	3137	48.548822352304	102
9	3199	49.548822352304	102
9	3261	50.548822352304	102
9	3323	51.548822352304	102
9	3385	52.548822352304	102
9	3447	53.548822352304	102
9	3509	54.548822352304	102
9	3571	55.548822352304	102
9	3633	56.548822352304	102
9	3695	57.548822352304	102
9	3757	58.548822352304	102
9	3819	59.548822352304	102
9	3881	60.548822352304	102
9	3943	61.548822352304	102
9	4005	62.548822352304	102
9	4067	63.548822352304	102
9	4129	64.548822352304	102
9	4191	65.548822352304	102
9	4253	66.548822352304	102
9	4315	67.548822352304	102
9	4377	68.548822352304	102
9	4439	69.548822352304	102
9	4501	70.548822352304	102
9	4563	71.548822352304	102
9	4625	72.548822352304	102
9	4687	73.548822352304	102
9	4749	74.548822352304	102
9	4811	75.548822352304	102
9	4873	76.548822352304	102
9	4935	77.548822352304	102
9	4997	78.548822352304	102
9	5059	79.548822352304	102
9	5121	80.548822352304	102
9	5183	81.548822352304	102
9	5245	82.548822352304	102
9	5307	83.548822352304	102
9	5369	84.548822352304	102
9	5431	85.548822352304	102
9	5493	86.548822352304	102
9	5555	87.548822352304	102
9	5617	88.548822352304	102
9	5679	89.548822352304	102
9	5741	90.548822352304	102
9	5803	91.548822352304	102
9	5865	92.548822352304	102
9	5927	93.548822352304	102
9	5989	94.548822352304	102
9	6051	95.548822352304	102
9	6113	96.548822352304	102
9	6175	97.548822352304	102
9	6237	98.548822352304	102
9	6299	99.548822352304	102
10	7	0.548819312304	64
10	21	0.548833972304	102
10	153	1.548822352304	102
10	257	2.548822352304	102
10	347	3.548822352304	102
10	409	4.548822352304	102
10	471	5.548822352304	102
10	533	6.548822352304	102
10	595	7.548822352304	102
10	657	8.548822352304	102
10	719	9.548822352304	102
10	781	10.548822352304	102
10	843	11.548822352304	102
10	905	12.548822352304	102
10	967	13.548822352304	102
10	1029	14.548822352304	102
10	1091	15.548822352304	102
10	1153	16.548822352304	102
10	1215	17.548822352304	102
10	1277	18.548822352304	102
10	1339	19.548822352304	102
10	1401	20.548822352304	102
10	1463	21.548822352304	102
10	1525	22.548822352304	102
10	1587	23.548822352304	102
10	1649	24.548822352304	102
10	1711	25.548822352304	102
10	1773	26.548822352304	102
10	1835	27.548822352304	102
10	1897	28.548822352304	102
10	1959	29.548822352304	102
10	2021	30.548822352304	102
10	2083	31.548822352304	102
10	2145	32.548822352304	102
10	2207	33.548822352304	102
10	2269	34.548822352304	102
10	2331	35.548822352304	102
10	2393	36.548822352304	102
10	2455	37.548822352304	102
10	2517	38.548822352304	102
10	2579	39.548822352304	102
10	2641	40.548822352304	102
10	2703	41.548822352304	102
10	2765	42.548822352304	102
10	2827	43.548822352304	102
10	2889	44.548822352304	102
10	2951	45.548822352304	102
10	3013	46.548822352304	102
10	3075	47.548822352304	102
10	3137	48.548822352304	102
10	3199	49.548822352304	102
10	3261	50.548822352304	102
10	3323	51.548822352304	102
10	3385	52.548822352304	102
10	3447	53.548822352304	102
10	3509	54.548822352304	102
10	3571	55.548822352304	102
10	3633	56.548822352304	102
10	3695	57.548822352304	102
10	3757	58.548822352304	102
10	3819	59.548822352304	102
10	3881	60.548822352304	102
10	3943	61.548822352304	102
10	4005	62.548822352304	102
10	4067	63.548822352304	102
10	4129	64.548822352304	102
10	4191	65.548822352304	102
10	4253	66.548822352304	102
10	4315	67.548822352304	102
10	4377	68.548822352304	102
10	4439	69.548822352304	102
10	4501	70.548822352304	102
10	4563	71.548822352304	102
10	4625	72.548822352304	102
10	4687	73.548822352304	102
10	4749	74.548822352304	102
10	4811	75.548822352304	102
10	4873	76.548822352304	102
10	4935	77.548822352304	102
10	4997	78.548822352304	102
10	5059	79.548822352304	102
10	5121	80.548822352304	102
10	5183	81.548822352304	102
10	5245	82.548822352304	102
10	5307	83.548822352304	102
10	5369	84.548822352304	102
10	5431	85.548822352304	102
10	5493	86.548822352304	102
10	5555	87.548822352304	102
10	5617	88.548822352304	102
10	5679	89.548822352304	102
10	5741	90.548822352304	102
10	5803	91.548822352304	102
10	5865	92.548822352304	102
10	5927	93.548822352304	102
10	5989	94.548822352304	102
10	6051	95.548822352304	102
10	6113	96.548822352304	102
10	6175	97.548822352304	102
10	6237	98.548822352304	102
10	6299	99.548822352304	102
11	8	0.548819312304	46
11	22	0.548833972304	84
11	154	1.548822352304	84
11	258	2.548822352304	84
11	348	3.548822352304	84
11	410	4.548822352304	84
11	472	5.548822352304	84
11	534	6.548822352304	84
11	596	7.548822352304	84
11	658	8.548822352304	84
11	720	9.548822352304	84
11	782	10.548822352304	84
11	844	11.548822352304	84
11	906	12.548822352304	84
11	968	13.548822352304	84
11	1030	14.548822352304	84
11	1092	15.548822352304	84
11	1154	16.548822352304	84
11	1216	17.548822352304	84
11	1278	18.548822352304	84
11	1340	19.548822352304	84
11	1402	20.548822352304	84
11	1464	21.548822352304	84
11	1526	22.548822352304	84
11	1588	23.548822352304	84
11	1650	24.548822352304	84
11	1712	25.548822352304	84
11	1774	26.548822352304	84
11	1836	27.548822352304	84
11	1898	28.548822352304	84
11	1960	29.548822352304	84
11	2022	30.548822352304	84
11	2084	31.548822352304	84
11	2146	32.548822352304	84
11	2208	33.548822352304	84
11	2270	34.548822352304	84
11	2332	35.548822352304	84
11	2394	36.548822352304	84
11	2456	37.548822352304	84
11	2518	38.548822352304	84
11	2580	39.548822352304	84
11	2642	40.548822352304	84
11	2704	41.548822352304	84
11	2766	42.548822352304	84
11	2828	43.548822352304	84
11	2890	44.548822352304	84
11	2952	45.548822352304	84
11	3014	46.548822352304	84
11	3076	47.548822352304	84
11	3138	48.548822352304	84
11	3200	49.548822352304	84
11	3262	50.548822352304	84
11	3324	51.548822352304	84
11	3386	52.548822352304	84
11	3448	53.548822352304	84
11	3510	54.548822352304	84
11	3572	55.548822352304	84
11	3634	56.548822352304	84
11	3696	57.548822352304	84
11	3758	58.548822352304	84
11	3820	59.548822352304	84
11	3882	60.548822352304	84
11	3944	61.548822352304	84
11	4006	62.548822352304	84
11	4068	63.548822352304	84
11	4130	64.548822352304	84
11	4192	65.548822352304	84
11	4254	66.548822352304	84
11	4316	67.548822352304	84
11	4378	68.548822352304	84
11	4440	69.548822352304	84
11	4502	70.548822352304	84
11	4564	71.548822352304	84
11	4626	72.548822352304	84
11	4688	73.548822352304	84
11	4750	74.548822352304	84
11	4812	75.548822352304	84
11	4874	76.548822352304	84
11	4936	77.548822352304	84
11	4998	78.548822352304	84
11	5060	79.548822352304	84
11	5122	80.548822352304	84
11	5184	81.548822352304	84
11	5246	82.548822352304	84
11	5308	83.548822352304	84
11	5370	84.548822352304	84
11	5432	85.548822352304	84
11	5494	86.548822352304	84
11	5556	87.548822352304	84
11	5618	88.548822352304	84
11	5680	89.548822352304	84
11	5742	90.548822352304	84
11	5804	91.548822352304	84
11	5866	92.548822352304	84
11	5928	93.548822352304	84
11	5990	94.548822352304	84
11	6052	95.548822352304	84
11	6114	96.548822352304	84
11	6176	97.548822352304	84
11	6238	98.548822352304	84
11	6300	99.548822352304	84
12	9	0.548819312304	28
12	123	0.548930512304	28
13	10	0.548819312304	28
13	138	0.548945172304	84
13	242	1.548910312304	84
13	332	2.548898692304	84
13	394	3.548875452304	84
13	456	4.548875452304	84
13	518	5.548875452304	84
13	580	6.548875452304	84
13	642	7.548875452304	84
13	704	8.548875452304	84
13	766	9.548875452304	84
13	828	10.548875452304	84
13	890	11.548875452304	84
13	952	12.548875452304	84
13	1014	13.548875452304	84
13	1076	14.548875452304	84
13	1138	15.548875452304	84
13	1200	16.548875452304	84
13	1262	17.548875452304	84
13	1324	18.548875452304	84
13	1386	19.548875452304	84
13	1448	20.548875452304	84
13	1510	21.548875452304	84
13	1572	22.548875452304	84
13	1634	23.548875452304	84
13	1696	24.548875452304	84
13	1758	25.548875452304	84
13	1820	26.548875452304	84
13	1882	27.548875452304	84
13	1944	28.548875452304	84
13	2006	29.548875452304	84
13	2068	30.548875452304	84
13	2130	31.548875452304	84
13	2192	32.548875452304	84
13	2254	33.548875452304	84
13	2316	34.548875452304	84
13	2378	35.548875452304	84
13	2440	36.548875452304	84
13	2502	37.548875452304	84
13	2564	38.548875452304	84
13	2626	39.548875452304	84
13	2688	40.548875452304	84
13	2750	41.548875452304	84
13	2812	42.548875452304	84
13	2874	43.548875452304	84
13	2936	44.548875452304	84
13	2998	45.548875452304	84
13	3060	46.548875452304	84
13	3122	47.548875452304	84
13	3184	48.548875452304	84
13	3246	49.548875452304	84
13	3308	50.548875452304	84
13	3370	51.548875452304	84
13	3432	52.548875452304	84
13	3494	53.548875452304	84
13	3556	54.548875452304	84
13	3618	55.548875452304	84
13	3680	56.548875452304	84
13	3742	57.548875452304	84
13	3804	58.548875452304	84
13	3866	59.548875452304	84
13	3928	60.548875452304	84
13	3990	61.548875452304	84
13	4052	62.548875452304	84
13	4114	63.548875452304	84
13	4176	64.548875452304	84
13	4238	65.548875452304	84
13	4300	66.548875452304	84
13	4362	67.548875452304	84
13	4424	68.548875452304	84
13	4486	69.548875452304	84
13	4548	70.548875452304	84
13	4610	71.548875452304	84
13	4672	72.548875452304	84
13	4734	73.548875452304	84
13	4796	74.548875452304	84
13	4858	75.548875452304	84
13	4920	76.548875452304	84
13	4982	77.548875452304	84
13	5044	78.548875452304	84
13	5106	79.548875452304	84
13	5168	80.548875452304	84
13	5230	81.548875452304	84
13	5292	82.548875452304	84
13	5354	83.548875452304	84
13	5416	84.548875452304	84
13	5478	85.548875452304	84
13	5540	86.548875452304	84
13	5602	87.548875452304	84
13	5664	88.548875452304	84
13	5726	89.548875452304	84
13	5788	90.548875452304	84
13	5850	91.548875452304	84
13	5912	92.548875452304	84
13	5974	93.548875452304	84
13	6036	94.548875452304	84
13	6098	95.548875452304	84
13	6160	96.548875452304	84
13	6222	97.548875452304	84
13	6284	98.548875452304	84
13	6346	99.548875452304	84
14	11	0.548819312304	46
14	139	0.548945172304	102
14	243	1.548910312304	102
14	333	2.548898692304	102
14	395	3.548875452304	102
14	457	4.548875452304	102
14	519	5.548875452304	102
14	581	6.548875452304	102
14	643	7.548875452304	102
14	705	8.548875452304	102
14	767	9.548875452304	102
14	829	10.548875452304	102
14	891	11.548875452304	102
14	953	12.548875452304	102
14	1015	13.548875452304	102
14	1077	14.548875452304	102
14	1139	15.548875452304	102
14	1201	16.548875452304	102
14	1263	17.548875452304	102
14	1325	18.548875452304	102
14	1387	19.548875452304	102
14	1449	20.548875452304	102
14	1511	21.548875452304	102
14	1573	22.548875452304	102
14	1635	23.548875452304	102
14	1697	24.548875452304	102
14	1759	25.548875452304	102
14	1821	26.548875452304	102
14	1883	27.548875452304	102
14	1945	28.548875452304	102
14	2007	29.548875452304	102
14	2069	30.548875452304	102
14	2131	31.548875452304	102
14	2193	32.548875452304	102
14	2255	33.548875452304	102
14	2317	34.548875452304	102
14	2379	35.548875452304	102
14	2441	36.548875452304	102
14	2503	37.548875452304	102
14	2565	38.548875452304	102
14	2627	39.548875452304	102
14	2689	40.548875452304	102
14	2751	41.548875452304	102
14	2813	42.548875452304	102
14	2875	43.548875452304	102
14	2937	44.548875452304	102
14	2999	45.548875452304	102
14	3061	46.548875452304	102
14	3123	47.548875452304	102
14	3185	48.548875452304	102
14	3247	49.548875452304	102
14	3309	50.548875452304	102
14	3371	51.548875452304	102
14	3433	52.548875452304	102
14	3495	53.548875452304	102
14	3557	54.548875452304	102
14	3619	55.548875452304	102
14	3681	56.548875452304	102
14	3743	57.548875452304	102
14	3805	58.548875452304	102
14	3867	59.548875452304	102
14	3929	60.548875452304	102
14	3991	61.548875452304	102
14	4053	62.548875452304	102
14	4115	63.548875452304	102
14	4177	64.548875452304	102
14	4239	65.548875452304	102
14	4301	66.548875452304	102
14	4363	67.548875452304	102
14	4425	68.548875452304	102
14	4487	69.548875452304	102
14	4549	70.548875452304	102
14	4611	71.548875452304	102
14	4673	72.548875452304	102
14	4735	73.548875452304	102
14	4797	74.548875452304	102
14	4859	75.548875452304	102
14	4921	76.548875452304	102
14	4983	77.548875452304	102
14	5045	78.548875452304	102
14	5107	79.548875452304	102
14	5169	80.548875452304	102
14	5231	81.548875452304	102
14	5293	82.548875452304	102
14	5355	83.548875452304	102
14	5417	84.548875452304	102
14	5479	85.548875452304	102
14	5541	86.548875452304	102
14	5603	87.548875452304	102
14	5665	88.548875452304	102
14	5727	89.548875452304	102
14	5789	90.548875452304	102
14	5851	91.548875452304	102
14	5913	92.548875452304	102
14	5975	93.548875452304	102
14	6037	94.548875452304	102
14	6099	95.548875452304	102
14	6161	96.548875452304	102
14	6223	97.548875452304	102
14	6285	98.548875452304	102
14	6347	99.548875452304	102
15	11	0.548819312304	64
15	139	0.548945172304	102
15	243	1.548910312304	102
15	333	2.548898692304	102
15	395	3.548875452304	102
15	457	4.548875452304	102
15	519	5.548875452304	102
15	581	6.548875452304	102
15	643	7.548875452304	102
15	705	8.548875452304	102
15	767	9.548875452304	102
15	829	10.548875452304	102
15	891	11.548875452304	102
15	953	12.548875452304	102
15	1015	13.548875452304	102
15	1077	14.548875452304	102
15	1139	15.548875452304	102
15	1201	16.548875452304	102
15	1263	17.548875452304	102
15	1325	18.548875452304	102
15	1387	19.548875452304	102
15	1449	20.548875452304	102
15	1511	21.548875452304	102
15	1573	22.548875452304	102
15	1635	23.548875452304	102
15	1697	24.548875452304	102
15	1759	25.548875452304	102
15	1821	26.548875452304	102
15	1883	27.548875452304	102
15	1945	28.548875452304	102
15	2007	29.548875452304	102
15	2069	30.548875452304	102
15	2131	31.548875452304	102
15	2193	32.548875452304	102
15	2255	33.548875452304	102
15	2317	34.548875452304	102
15	2379	35.548875452304	102
15	2441	36.548875452304	102
15	2503	37.548875452304	102
15	2565	38.548875452304	102
15	2627	39.548875452304	102
15	2689	40.548875452304	102
15	2751	41.548875452304	102
15	2813	42.548875452304	102
15	2875	43.548875452304	102
15	2937	44.548875452304	102
15	2999	45.548875452304	102
15	3061	46.548875452304	102
15	3123	47.548875452304	102
15	3185	48.548875452304	102
15	3247	49.548875452304	102
15	3309	50.548875452304	102
15	3371	51.548875452304	102
15	3433	52.548875452304	102
15	3495	53.548875452304	102
15	3557	54.548875452304	102
15	3619	55.548875452304	102
15	3681	56.548875452304	102
15	3743	57.548875452304	102
15	3805	58.548875452304	102
15	3867	59.548875452304	102
15	3929	60.548875452304	102
15	3991	61.548875452304	102
15	4053	62.548875452304	102
15	4115	63.548875452304	102
15	4177	64.548875452304	102
15	4239	65.548875452304	102
15	4301	66.548875452304	102
15	4363	67.548875452304	102
15	4425	68.548875452304	102
15	4487	69.548875452304	102
15	4549	70.548875452304	102
15	4611	71.548875452304	102
15	4673	72.548875452304	102
15	4735	73.548875452304	102
15	4797	74.548875452304	102
15	4859	75.548875452304	102
15	4921	76.548875452304	102
15	4983	77.548875452304	102
15	5045	78.548875452304	102
15	5107	79.548875452304	102
15	5169	80.548875452304	102
15	5231	81.548875452304	102
15	5293	82.548875452304	102
15	5355	83.548875452304	102
15	5417	84.548875452304	102
15	5479	85.548875452304	102
15	5541	86.548875452304	102
15	5603	87.548875452304	102
15	5665	88.548875452304	102
15	5727	89.548875452304	102
15	5789	90.548875452304	102
15	5851	91.548875452304	102
15	5913	92.548875452304	102
15	5975	93.548875452304	102
15	6037	94.548875452304	102
15	6099	95.548875452304	102
15	6161	96.548875452304	102
15	6223	97.548875452304	102
15	6285	98.548875452304	102
15	6347	99.548875452304	102
16	11	0.548819312304	1
16	11	0.548819312304	0
16	139	0.548945172304	1
16	139	0.548945172304	0
16	243	1.548910312304	1
16	243	1.548910312304	0
16	333	2.548898692304	1
16	333	2.548898692304	0
16	395	3.548875452304	1
16	395	3.548875452304	0
16	457	4.548875452304	1
16	457	4.548875452304	0
16	519	5.548875452304	1
16	519	5.548875452304	0
16	581	6.548875452304	1
16	581	6.548875452304	0
16	643	7.548875452304	1
16	643	7.548875452304	0
16	705	8.548875452304	1
16	705	8.548875452304	0
16	767	9.548875452304	1
16	767	9.548875452304	0
16	829	10.548875452304	1
16	829	10.548875452304	0
16	891	11.548875452304	1
16	891	11.548875452304	0
16	953	12.548875452304	1
16	953	12.548875452304	0
16	1015	13.548875452304	1
16	1015	13.548875452304	0
16	1077	14.548875452304	1
16	1077	14.548875452304	0
16	1139	15.548875452304	1
16	1139	15.548875452304	0
16	1201	16.548875452304	1
16	1201	16.548875452304	0
16	1263	17.548875452304	1
16	1263	17.548875452304	0
16	1325	18.548875452304	1
16	1325	18.548875452304	0
16	1387	19.548875452304	1
16	1387	19.548875452304	0
16	1449	20.548875452304	1
16	1449	20.548875452304	0
16	1511	21.548875452304	1
16	1511	21.548875452304	0
16	1573	22.548875452304	1
16	1573	22.548875452304	0
16	1635	23.548875452304	1
16	1635	23.548875452304	0
16	1697	24.548875452304	1
16	1697	24.548875452304	0
16	1759	25.548875452304	1
16	1759	25.548875452304	0
16	1821	26.548875452304	1
16	1821	26.548875452304	0
16	1883	27.548875452304	1
16	1883	27.548875452304	0
16	1945	28.548875452304	1
16	1945	28.548875452304	0
16	2007	29.548875452304	1
16	2007	29.548875452304	0
16	2069	30.548875452304	1
16	2069	30.548875452304	0
16	2131	31.548875452304	1
16	2131	31.548875452304	0
16	2193	32.548875452304	1
16	2193	32.548875452304	0
16	2255	33.548875452304	1
16	2255	33.548875452304	0
16	2317	34.548875452304	1
16	2317	34.548875452304	0
16	2379	35.548875452304	1
16	2379	35.548875452304	0
16	2441	36.548875452304	1
16	2441	36.548875452304	0
16	2503	37.548875452304	1
16	2503	37.548875452304	0
16	2565	38.548875452304	1
16	2565	38.548875452304	0
16	2627	39.548875452304	1
16	2627	39.548875452304	0
16	2689	40.548875452304	1
16	2689	40.548875452304	0
16	2751	41.548875452304	1
16	2751	41.548875452304	0
16	2813	42.548875452304	1
16	2813	42.548875452304	0
16	2875	43.548875452304	1
16	2875	43.548875452304	0
16	2937	44.548875452304	1
16	2937	44.548875452304	0
16	2999	45.548875452304	1
16	2999	45.548875452304	0
16	3061	46.548875452304	1
16	3061	46.548875452304	0
16	3123	47.548875452304	1
16	3123	47.548875452304	0
16	3185	48.548875452304	1
16	3185	48.548875452304	0
16	3247	49.548875452304	1
16	3247	49.548875452304	0
16	3309	50.548875452304	1
16	3309	50.548875452304	0
16	3371	51.548875452304	1
16	3371	51.548875452304	0
16	3433	52.548875452304	1
16	3433	52.548875452304	0
16	3495	53.548875452304	1
16	3495	53.548875452304	0
16	3557	54.548875452304	1
16	3557	54.548875452304	0
16	3619	55.548875452304	1
16	3619	55.548875452304	0
16	3681	56.548875452304	1
16	3681	56.548875452304	0
16	3743	57.548875452304	1
16	3743	57.548875452304	0
16	3805	58.548875452304	1
16	3805	58.548875452304	0
16	3867	59.548875452304	1
16	3867	59.548875452304	0
16	3929	60.548875452304	1
16	3929	60.548875452304	0
16	3991	61.548875452304	1
16	3991	61.548875452304	0
16	4053	62.548875452304	1
16	4053	62.548875452304	0
16	4115	63.548875452304	1
16	4115	63.548875452304	0
16	4177	64.548875452304	1
16	4177	64.548875452304	0
16	4239	65.548875452304	1
16	4239	65.548875452304	0
16	4301	66.548875452304	1
16	4301	66.548875452304	0
16	4363	67.548875452304	1
16	4363	67.548875452304	0
16	4425	68.548875452304	1
16	4425	68.548875452304	0
16	4487	69.548875452304	1
16	4487	69.548875452304	0
16	4549	70.548875452304	1
16	4549	70.548875452304	0
16	4611	71.548875452304	1
16	4611	71.548875452304	0
16	4673	72.548875452304	1
16	4673	72.548875452304	0
16	4735	73.548875452304	1
16	4735	73.548875452304	0
16	4797	74.548875452304	1
16	4797	74.548875452304	0
16	4859	75.548875452304	1
16	4859	75.548875452304	0
16	4921	76.548875452304	1
16	4921	76.548875452304	0
16	4983	77.548875452304	1
16	4983	77.548875452304	0
16	5045	78.548875452304	1
16	5045	78.548875452304	0
16	5107	79.548875452304	1
16	5107	79.548875452304	0
16	5169	80.548875452304	1
16	5169	80.548875452304	0
16	5231	81.548875452304	1
16	5231	81.548875452304	0
16	5293	82.548875452304	1
16	5293	82.548875452304	0
16	5355	83.548875452304	1
16	5355	83.548875452304	0
16	5417	84.548875452304	1
16	5417	84.548875452304	0
16	5479	85.548875452304	1
16	5479	85.548875452304	0
16	5541	86.548875452304	1
16	5541	86.548875452304	0
16	5603	87.548875452304	1
16	5603	87.548875452304	0
16	5665	88.548875452304	1
16	5665	88.548875452304	0
16	5727	89.548875452304	1
16	5727	89.548875452304	0
16	5789	90.548875452304	1
16	5789	90.548875452304	0
16	5851	91.548875452304	1
16	5851	91.548875452304	0
16	5913	92.548875452304	1
16	5913	92.548875452304	0
16	5975	93.548875452304	1
16	5975	93.548875452304	0
16	6037	94.548875452304	1
16	6037	94.548875452304	0
16	6099	95.548875452304	1
16	6099	95.548875452304	0
16	6161	96.548875452304	1
16	6161	96.548875452304	0
16	6223	97.548875452304	1
16	6223	97.548875452304	0
16	6285	98.548875452304	1
16	6285	98.548875452304	0
16	6347	99.548875452304	1
16	6347	99.548875452304	0
17	11	0.548819312304	64
[...]
156	312	2.548875182304	46
156	792	10.548831202304	102
156	916	12.548831202304	102
156	1226	17.548831202304	102
156	1350	19.548831202304	102
156	1412	20.548831202304	102
156	1474	21.548831202304	102
156	1598	23.548831202304	102
156	1660	24.548831202304	102
156	1722	25.548831202304	102
156	1908	28.548831202304	102
156	2466	37.548831202304	102
156	2714	41.548831202304	102
156	3086	47.548831202304	102
156	3148	48.548831202304	102
156	3210	49.548831202304	102
156	3334	51.548831202304	102
156	3396	52.548831202304	102
156	4264	66.548831202304	102
156	4512	70.548831202304	102
156	4822	75.548831202304	102
156	4884	76.548831202304	102
156	5132	80.548831202304	102
156	5194	81.548831202304	102
156	5380	84.548831202304	102
156	5504	86.548831202304	102
156	5628	88.548831202304	102
156	5752	90.548831202304	102
156	6000	94.548831202304	102
156	6248	98.548831202304	102
157	178	1.548842822304	64
157	192	1.548854442304	102
157	312	2.548875182304	64
157	792	10.548831202304	102
157	916	12.548831202304	102
157	1226	17.548831202304	102
157	1350	19.548831202304	102
157	1412	20.548831202304	102
157	1474	21.548831202304	102
157	1598	23.548831202304	102
157	1660	24.548831202304	102
157	1722	25.548831202304	102
157	1908	28.548831202304	102
157	2466	37.548831202304	102
157	2714	41.548831202304	102
157	3086	47.548831202304	102
157	3148	48.548831202304	102
157	3210	49.548831202304	102
157	3334	51.548831202304	102
157	3396	52.548831202304	102
157	4264	66.548831202304	102
157	4512	70.548831202304	102
157	4822	75.548831202304	102
157	4884	76.548831202304	102
157	5132	80.548831202304	102
157	5194	81.548831202304	102
157	5380	84.548831202304	102
157	5504	86.548831202304	102
157	5628	88.548831202304	102
157	5752	90.548831202304	102
157	6000	94.548831202304	102
157	6248	98.548831202304	102
158	178	1.548842822304	1
158	178	1.548842822304	0
158	192	1.548854442304	1
158	192	1.548854442304	0
158	312	2.548875182304	1
158	312	2.548875182304	0
158	792	10.548831202304	1
158	792	10.548831202304	0
158	916	12.548831202304	1
158	916	12.548831202304	0
158	1226	17.548831202304	1
158	1226	17.548831202304	0
158	1350	19.548831202304	1
158	1350	19.548831202304	0
158	1412	20.548831202304	1
158	1412	20.548831202304	0
158	1474	21.548831202304	1
158	1474	21.548831202304	0
158	1598	23.548831202304	1
158	1598	23.548831202304	0
158	1660	24.548831202304	1
158	1660	24.548831202304	0
158	1722	25.548831202304	1
158	1722	25.548831202304	0
158	1908	28.548831202304	1
158	1908	28.548831202304	0
158	2466	37.548831202304	1
158	2466	37.548831202304	0
158	2714	41.548831202304	1
158	2714	41.548831202304	0
158	3086	47.548831202304	1
158	3086	47.548831202304	0
158	3148	48.548831202304	1
158	3148	48.548831202304	0
158	3210	49.548831202304	1
158	3210	49.548831202304	0
158	3334	51.548831202304	1
158	3334	51.548831202304	0
158	3396	52.548831202304	1
158	3396	52.548831202304	0
158	4264	66.548831202304	1
158	4264	66.548831202304	0
158	4512	70.548831202304	1
158	4512	70.548831202304	0
158	4822	75.548831202304	1
158	4822	75.548831202304	0
158	4884	76.548831202304	1
158	4884	76.548831202304	0
158	5132	80.548831202304	1
158	5132	80.548831202304	0
158	5194	81.548831202304	1
158	5194	81.548831202304	0
158	5380	84.548831202304	1
158	5380	84.548831202304	0
158	5504	86.548831202304	1
158	5504	86.548831202304	0
158	5628	88.548831202304	1
158	5628	88.548831202304	0
158	5752	90.548831202304	1
158	5752	90.548831202304	0
158	6000	94.548831202304	1
158	6000	94.548831202304	0
158	6248	98.548831202304	1
158	6248	98.548831202304	0
159	178	1.548842822304	64
159	192	1.548854442304	102
159	312	2.548875182304	64
159	792	10.548831202304	102
159	916	12.548831202304	102
159	1226	17.548831202304	102
159	1350	19.548831202304	102
159	1412	20.548831202304	102
159	1474	21.548831202304	102
159	1598	23.548831202304	102
159	1660	24.548831202304	102
159	1722	25.548831202304	102
159	1908	28.548831202304	102
159	2466	37.548831202304	102
159	2714	41.548831202304	102
159	3086	47.548831202304	102
159	3148	48.548831202304	102
159	3210	49.548831202304	102
159	3334	51.548831202304	102
159	3396	52.548831202304	102
159	4264	66.548831202304	102
159	4512	70.548831202304	102
159	4822	75.548831202304	102
159	4884	76.548831202304	102
159	5132	80.548831202304	102
159	5194	81.548831202304	102
159	5380	84.548831202304	102
159	5504	86.548831202304	102
159	5628	88.548831202304	102
159	5752	90.548831202304	102
159	6000	94.548831202304	102
159	6248	98.548831202304	102
160	178	1.548842822304	0
160	192	1.548854442304	0
160	312	2.548875182304	0
160	792	10.548831202304	0
160	916	12.548831202304	0
160	1226	17.548831202304	0
160	1350	19.548831202304	0
160	1412	20.548831202304	0
160	1474	21.548831202304	0
160	1598	23.548831202304	0
160	1660	24.548831202304	0
160	1722	25.548831202304	0
160	1908	28.548831202304	0
160	2466	37.548831202304	0
160	2714	41.548831202304	0
160	3086	47.548831202304	0
160	3148	48.548831202304	0
160	3210	49.548831202304	0
160	3334	51.548831202304	0
160	3396	52.548831202304	0
160	4264	66.548831202304	0
160	4512	70.548831202304	0
160	4822	75.548831202304	0
160	4884	76.548831202304	0
160	5132	80.548831202304	0
160	5194	81.548831202304	0
160	5380	84.548831202304	0
160	5504	86.548831202304	0
160	5628	88.548831202304	0
160	5752	90.548831202304	0
160	6000	94.548831202304	0
160	6248	98.548831202304	0
161	180	1.548848582304	64
161	194	1.548863242304	102
161	314	2.548880942304	64
161	794	10.548840002304	102
161	918	12.548840002304	102
161	1228	17.548840002304	102
161	1352	19.548840002304	102
161	1414	20.548840002304	102
161	1476	21.548840002304	102
161	1600	23.548840002304	102
161	1662	24.548840002304	102
161	1724	25.548840002304	102
161	1910	28.548840002304	102
161	2468	37.548840002304	102
161	2716	41.548840002304	102
161	3088	47.548840002304	102
161	3150	48.548840002304	102
161	3212	49.548840002304	102
161	3336	51.548840002304	102
161	3398	52.548840002304	102
161	4266	66.548840002304	102
161	4514	70.548840002304	102
161	4824	75.548840002304	102
161	4886	76.548840002304	102
161	5134	80.548840002304	102
161	5196	81.548840002304	102
161	5382	84.548840002304	102
161	5506	86.548840002304	102
161	5630	88.548840002304	102
161	5754	90.548840002304	102
161	6002	94.548840002304	102
161	6250	98.548840002304	102
162	181	1.548848632304	64
162	195	1.548863292304	102
162	315	2.548880992304	64
162	795	10.548840052304	102
162	919	12.548840052304	102
162	1229	17.548840052304	102
162	1353	19.548840052304	102
162	1415	20.548840052304	102
162	1477	21.548840052304	102
162	1601	23.548840052304	102
162	1663	24.548840052304	102
162	1725	25.548840052304	102
162	1911	28.548840052304	102
162	2469	37.548840052304	102
162	2717	41.548840052304	102
162	3089	47.548840052304	102
162	3151	48.548840052304	102
162	3213	49.548840052304	102
162	3337	51.548840052304	102
162	3399	52.548840052304	102
162	4267	66.548840052304	102
162	4515	70.548840052304	102
162	4825	75.548840052304	102
162	4887	76.548840052304	102
162	5135	80.548840052304	102
162	5197	81.548840052304	102
162	5383	84.548840052304	102
162	5507	86.548840052304	102
162	5631	88.548840052304	102
162	5755	90.548840052304	102
162	6003	94.548840052304	102
162	6251	98.548840052304	102
163	181	1.548848632304	64
163	195	1.548863292304	102
163	315	2.548880992304	64
163	795	10.548840052304	102
163	919	12.548840052304	102
163	1229	17.548840052304	102
163	1353	19.548840052304	102
163	1415	20.548840052304	102
163	1477	21.548840052304	102
163	1601	23.548840052304	102
163	1663	24.548840052304	102
163	1725	25.548840052304	102
163	1911	28.548840052304	102
163	2469	37.548840052304	102
163	2717	41.548840052304	102
163	3089	47.548840052304	102
163	3151	48.548840052304	102
163	3213	49.548840052304	102
163	3337	51.548840052304	102
163	3399	52.548840052304	102
163	4267	66.548840052304	102
163	4515	70.548840052304	102
163	4825	75.548840052304	102
163	4887	76.548840052304	102
163	5135	80.548840052304	102
163	5197	81.548840052304	102
163	5383	84.548840052304	102
163	5507	86.548840052304	102
163	5631	88.548840052304	102
163	5755	90.548840052304	102
163	6003	94.548840052304	102
163	6251	98.548840052304	102
164	182	1.548848632304	46
164	196	1.548863292304	84
164	316	2.548880992304	46
164	796	10.548840052304	84
164	920	12.548840052304	84
164	1230	17.548840052304	84
164	1354	19.548840052304	84
164	1416	20.548840052304	84
164	1478	21.548840052304	84
164	1602	23.548840052304	84
164	1664	24.548840052304	84
164	1726	25.548840052304	84
164	1912	28.548840052304	84
164	2470	37.548840052304	84
164	2718	41.548840052304	84
164	3090	47.548840052304	84
164	3152	48.548840052304	84
164	3214	49.548840052304	84
164	3338	51.548840052304	84
164	3400	52.548840052304	84
164	4268	66.548840052304	84
164	4516	70.548840052304	84
164	4826	75.548840052304	84
164	4888	76.548840052304	84
164	5136	80.548840052304	84
164	5198	81.548840052304	84
164	5384	84.548840052304	84
164	5508	86.548840052304	84
164	5632	88.548840052304	84
164	5756	90.548840052304	84
164	6004	94.548840052304	84
164	6252	98.548840052304	84
165	184	1.548848632304	28
165	304	2.548869372304	28
165	318	2.548880992304	84
165	380	3.548857752304	84
165	442	4.548857752304	84
165	1248	17.548857752304	84
165	1434	20.548857752304	84
165	1558	22.548857752304	84
165	1992	29.548857752304	84
165	2054	30.548857752304	84
165	2116	31.548857752304	84
165	2364	35.548857752304	84
165	2612	39.548857752304	84
165	2984	45.548857752304	84
165	3046	46.548857752304	84
165	3170	48.548857752304	84
165	3294	50.548857752304	84
165	3418	52.548857752304	84
165	3666	56.548857752304	84
165	3728	57.548857752304	84
165	3852	59.548857752304	84
165	4286	66.548857752304	84
165	4534	70.548857752304	84
165	4844	75.548857752304	84
165	4906	76.548857752304	84
165	4968	77.548857752304	84
165	5030	78.548857752304	84
165	5154	80.548857752304	84
165	5278	82.548857752304	84
165	5402	84.548857752304	84
165	5464	85.548857752304	84
165	5650	88.548857752304	84
165	5774	90.548857752304	84
165	5836	91.548857752304	84
165	6146	96.548857752304	84
165	6332	99.548857752304	84
166	185	1.548848632304	46
166	305	2.548869372304	46
166	319	2.548880992304	102
166	381	3.548857752304	102
166	443	4.548857752304	102
166	1249	17.548857752304	102
166	1435	20.548857752304	102
166	1559	22.548857752304	102
166	1993	29.548857752304	102
166	2055	30.548857752304	102
166	2117	31.548857752304	102
166	2365	35.548857752304	102
166	2613	39.548857752304	102
166	2985	45.548857752304	102
166	3047	46.548857752304	102
166	3171	48.548857752304	102
166	3295	50.548857752304	102
166	3419	52.548857752304	102
166	3667	56.548857752304	102
166	3729	57.548857752304	102
166	3853	59.548857752304	102
166	4287	66.548857752304	102
166	4535	70.548857752304	102
166	4845	75.548857752304	102
166	4907	76.548857752304	102
166	4969	77.548857752304	102
166	5031	78.548857752304	102
166	5155	80.548857752304	102
166	5279	82.548857752304	102
166	5403	84.548857752304	102
166	5465	85.548857752304	102
166	5651	88.548857752304	102
166	5775	90.548857752304	102
166	5837	91.548857752304	102
166	6147	96.548857752304	102
166	6333	99.548857752304	102
167	185	1.548848632304	64
167	305	2.548869372304	64
167	319	2.548880992304	102
167	381	3.548857752304	102
167	443	4.548857752304	102
167	1249	17.548857752304	102
167	1435	20.548857752304	102
167	1559	22.548857752304	102
167	1993	29.548857752304	102
167	2055	30.548857752304	102
167	2117	31.548857752304	102
167	2365	35.548857752304	102
167	2613	39.548857752304	102
167	2985	45.548857752304	102
167	3047	46.548857752304	102
167	3171	48.548857752304	102
167	3295	50.548857752304	102
167	3419	52.548857752304	102
167	3667	56.548857752304	102
167	3729	57.548857752304	102
167	3853	59.548857752304	102
167	4287	66.548857752304	102
167	4535	70.548857752304	102
167	4845	75.548857752304	102
167	4907	76.548857752304	102
167	4969	77.548857752304	102
167	5031	78.548857752304	102
167	5155	80.548857752304	102
167	5279	82.548857752304	102
167	5403	84.548857752304	102
167	5465	85.548857752304	102
167	5651	88.548857752304	102
167	5775	90.548857752304	102
167	5837	91.548857752304	102
167	6147	96.548857752304	102
167	6333	99.548857752304	102
168	185	1.548848632304	1
168	185	1.548848632304	0
168	305	2.548869372304	1
168	305	2.548869372304	0
168	319	2.548880992304	1
168	319	2.548880992304	0
168	381	3.548857752304	1
168	381	3.548857752304	0
168	443	4.548857752304	1
168	443	4.548857752304	0
168	1249	17.548857752304	1
168	1249	17.548857752304	0
168	1435	20.548857752304	1
168	1435	20.548857752304	0
168	1559	22.548857752304	1
168	1559	22.548857752304	0
168	1993	29.548857752304	1
168	1993	29.548857752304	0
168	2055	30.548857752304	1
168	2055	30.548857752304	0
168	2117	31.548857752304	1
168	2117	31.548857752304	0
168	2365	35.548857752304	1
168	2365	35.548857752304	0
168	2613	39.548857752304	1
168	2613	39.548857752304	0
168	2985	45.548857752304	1
168	2985	45.548857752304	0
168	3047	46.548857752304	1
168	3047	46.548857752304	0
168	3171	48.548857752304	1
168	3171	48.548857752304	0
168	3295	50.548857752304	1
168	3295	50.548857752304	0
168	3419	52.548857752304	1
168	3419	52.548857752304	0
168	3667	56.548857752304	1
168	3667	56.548857752304	0
168	3729	57.548857752304	1
168	3729	57.548857752304	0
168	3853	59.548857752304	1
168	3853	59.548857752304	0
168	4287	66.548857752304	1
168	4287	66.548857752304	0
168	4535	70.548857752304	1
168	4535	70.548857752304	0
168	4845	75.548857752304	1
168	4845	75.548857752304	0
168	4907	76.548857752304	1
168	4907	76.548857752304	0
168	4969	77.548857752304	1
168	4969	77.548857752304	0
168	5031	78.548857752304	1
168	5031	78.548857752304	0
168	5155	80.548857752304	1
168	5155	80.548857752304	0
168	5279	82.548857752304	1
168	5279	82.548857752304	0
168	5403	84.548857752304	1
168	5403	84.548857752304	0
168	5465	85.548857752304	1
168	5465	85.548857752304	0
168	5651	88.548857752304	1
168	5651	88.548857752304	0
168	5775	90.548857752304	1
168	5775	90.548857752304	0
168	5837	91.548857752304	1
168	5837	91.548857752304	0
168	6147	96.548857752304	1
168	6147	96.548857752304	0
168	6333	99.548857752304	1
168	6333	99.548857752304	0
169	185	1.548848632304	64
169	305	2.548869372304	64
169	319	2.548880992304	102
169	381	3.548857752304	102
169	443	4.548857752304	102
169	1249	17.548857752304	102
169	1435	20.548857752304	102
169	1559	22.548857752304	102
169	1993	29.548857752304	102
169	2055	30.548857752304	102
169	2117	31.548857752304	102
169	2365	35.548857752304	102
169	2613	39.548857752304	102
169	2985	45.548857752304	102
169	3047	46.548857752304	102
169	3171	48.548857752304	102
169	3295	50.548857752304	102
169	3419	52.548857752304	102
169	3667	56.548857752304	102
169	3729	57.548857752304	102
169	3853	59.548857752304	102
169	4287	66.548857752304	102
169	4535	70.548857752304	102
169	4845	75.548857752304	102
169	4907	76.548857752304	102
169	4969	77.548857752304	102
169	5031	78.548857752304	102
169	5155	80.548857752304	102
169	5279	82.548857752304	102
169	5403	84.548857752304	102
169	5465	85.548857752304	102
169	5651	88.548857752304	102
169	5775	90.548857752304	102
169	5837	91.548857752304	102
169	6147	96.548857752304	102
169	6333	99.548857752304	102
170	185	1.548848632304	0
170	305	2.548869372304	0
170	319	2.548880992304	0
170	381	3.548857752304	0
170	443	4.548857752304	0
170	1249	17.548857752304	0
170	1435	20.548857752304	0
170	1559	22.548857752304	0
170	1993	29.548857752304	0
170	2055	30.548857752304	0
170	2117	31.548857752304	0
170	2365	35.548857752304	0
170	2613	39.548857752304	0
170	2985	45.548857752304	0
170	3047	46.548857752304	0
170	3171	48.548857752304	0
170	3295	50.548857752304	0
170	3419	52.548857752304	0
170	3667	56.548857752304	0
170	3729	57.548857752304	0
170	3853	59.548857752304	0
170	4287	66.548857752304	0
170	4535	70.548857752304	0
170	4845	75.548857752304	0
170	4907	76.548857752304	0
170	4969	77.548857752304	0
170	5031	78.548857752304	0
170	5155	80.548857752304	0
170	5279	82.548857752304	0
170	5403	84.548857752304	0
170	5465	85.548857752304	0
170	5651	88.548857752304	0
170	5775	90.548857752304	0
170	5837	91.548857752304	0
170	6147	96.548857752304	0
170	6333	99.548857752304	0
171	187	1.548854392304	64
171	307	2.548875132304	64
171	321	2.548889792304	102
171	383	3.548866552304	102
171	445	4.548866552304	102
171	1251	17.548866552304	102
171	1437	20.548866552304	102
171	1561	22.548866552304	102
171	1995	29.548866552304	102
171	2057	30.548866552304	102
171	2119	31.548866552304	102
171	2367	35.548866552304	102
171	2615	39.548866552304	102
171	2987	45.548866552304	102
171	3049	46.548866552304	102
171	3173	48.548866552304	102
171	3297	50.548866552304	102
171	3421	52.548866552304	102
171	3669	56.548866552304	102
171	3731	57.548866552304	102
171	3855	59.548866552304	102
171	4289	66.548866552304	102
171	4537	70.548866552304	102
171	4847	75.548866552304	102
171	4909	76.548866552304	102
171	4971	77.548866552304	102
171	5033	78.548866552304	102
171	5157	80.548866552304	102
171	5281	82.548866552304	102
171	5405	84.548866552304	102
171	5467	85.548866552304	102
171	5653	88.548866552304	102
171	5777	90.548866552304	102
171	5839	91.548866552304	102
171	6149	96.548866552304	102
171	6335	99.548866552304	102
172	188	1.548854442304	64
172	308	2.548875182304	64
172	322	2.548889842304	102
172	384	3.548866602304	102
172	446	4.548866602304	102
172	1252	17.548866602304	102
172	1438	20.548866602304	102
172	1562	22.548866602304	102
172	1996	29.548866602304	102
172	2058	30.548866602304	102
172	2120	31.548866602304	102
172	2368	35.548866602304	102
172	2616	39.548866602304	102
172	2988	45.548866602304	102
172	3050	46.548866602304	102
172	3174	48.548866602304	102
172	3298	50.548866602304	102
172	3422	52.548866602304	102
172	3670	56.548866602304	102
172	3732	57.548866602304	102
172	3856	59.548866602304	102
172	4290	66.548866602304	102
172	4538	70.548866602304	102
172	4848	75.548866602304	102
172	4910	76.548866602304	102
172	4972	77.548866602304	102
172	5034	78.548866602304	102
172	5158	80.548866602304	102
172	5282	82.548866602304	102
172	5406	84.548866602304	102
172	5468	85.548866602304	102
172	5654	88.548866602304	102
172	5778	90.548866602304	102
172	5840	91.548866602304	102
172	6150	96.548866602304	102
172	6336	99.548866602304	102
173	188	1.548854442304	64
173	308	2.548875182304	64
173	322	2.548889842304	102
173	384	3.548866602304	102
173	446	4.548866602304	102
173	1252	17.548866602304	102
173	1438	20.548866602304	102
173	1562	22.548866602304	102
173	1996	29.548866602304	102
173	2058	30.548866602304	102
173	2120	31.548866602304	102
173	2368	35.548866602304	102
173	2616	39.548866602304	102
173	2988	45.548866602304	102
173	3050	46.548866602304	102
173	3174	48.548866602304	102
173	3298	50.548866602304	102
173	3422	52.548866602304	102
173	3670	56.548866602304	102
173	3732	57.548866602304	102
173	3856	59.548866602304	102
173	4290	66.548866602304	102
173	4538	70.548866602304	102
173	4848	75.548866602304	102
173	4910	76.548866602304	102
173	4972	77.548866602304	102
173	5034	78.548866602304	102
173	5158	80.548866602304	102
173	5282	82.548866602304	102
173	5406	84.548866602304	102
173	5468	85.548866602304	102
173	5654	88.548866602304	102
173	5778	90.548866602304	102
173	5840	91.548866602304	102
173	6150	96.548866602304	102
173	6336	99.548866602304	102
174	189	1.548854442304	46
174	309	2.548875182304	46
174	323	2.548889842304	84
174	385	3.548866602304	84
174	447	4.548866602304	84
174	1253	17.548866602304	84
174	1439	20.548866602304	84
174	1563	22.548866602304	84
174	1997	29.548866602304	84
174	2059	30.548866602304	84
174	2121	31.548866602304	84
174	2369	35.548866602304	84
174	2617	39.548866602304	84
174	2989	45.548866602304	84
174	3051	46.548866602304	84
174	3175	48.548866602304	84
174	3299	50.548866602304	84
174	3423	52.548866602304	84
174	3671	56.548866602304	84
174	3733	57.548866602304	84
174	3857	59.548866602304	84
174	4291	66.548866602304	84
174	4539	70.548866602304	84
174	4849	75.548866602304	84
174	4911	76.548866602304	84
174	4973	77.548866602304	84
174	5035	78.548866602304	84
174	5159	80.548866602304	84
174	5283	82.548866602304	84
174	5407	84.548866602304	84
174	5469	85.548866602304	84
174	5655	88.548866602304	84
174	5779	90.548866602304	84
174	5841	91.548866602304	84
174	6151	96.548866602304	84
174	6337	99.548866602304	84

