version 2
run scriptTraffic-0-20210218-12:31:16-16004
attr configname scriptTraffic
attr datetime 20210218-12:31:16
attr experiment scriptTraffic
attr inifile ini_generated.ini
attr iterationvars ""
attr iterationvarsf ""
attr measurement ""
attr network XHost_SpineLeaf_Network
attr processid 16004
attr repetition 0
attr replication #0
attr resultdir results
attr runnumber 0
attr seedset 0
param **.leaf[*].H[*].numApps 5
param **.leaf[*].H[*].app[0].typename "\"TcpSinkApp\""
param **.leaf[*].H[*].app[1..].typename "\"TcpSessionApp\""
param **.leaf[*].H[*].app[1..].tSend 0
param **.leaf[*].H[*].app[1..].sendBytes 0
param **.leaf[0].H[0].app[1].connectAddress "\"leaf[3].H[4]\""
param **.leaf[0].H[0].app[2].connectAddress "\"leaf[2].H[0]\""
param **.leaf[0].H[0].app[3].connectAddress "\"leaf[1].H[3]\""
param **.leaf[0].H[0].app[4].connectAddress "\"leaf[3].H[1]\""
param **.leaf[0].H[1].app[1].connectAddress "\"leaf[3].H[3]\""
param **.leaf[0].H[1].app[2].connectAddress "\"leaf[4].H[0]\""
param **.leaf[0].H[1].app[3].connectAddress "\"leaf[3].H[4]\""
param **.leaf[0].H[1].app[4].connectAddress "\"leaf[2].H[2]\""
param **.leaf[0].H[2].app[1].connectAddress "\"leaf[1].H[1]\""
param **.leaf[0].H[2].app[2].connectAddress "\"leaf[1].H[4]\""
param **.leaf[0].H[2].app[3].connectAddress "\"leaf[3].H[1]\""
param **.leaf[0].H[2].app[4].connectAddress "\"leaf[4].H[1]\""
param **.leaf[0].H[3].app[1].connectAddress "\"leaf[2].H[1]\""
param **.leaf[0].H[3].app[2].connectAddress "\"leaf[2].H[3]\""
param **.leaf[0].H[3].app[3].connectAddress "\"leaf[4].H[4]\""
param **.leaf[0].H[3].app[4].connectAddress "\"leaf[1].H[1]\""
param **.leaf[0].H[4].app[1].connectAddress "\"leaf[3].H[0]\""
param **.leaf[0].H[4].app[2].connectAddress "\"leaf[1].H[1]\""
param **.leaf[0].H[4].app[3].connectAddress "\"leaf[3].H[3]\""
param **.leaf[0].H[4].app[4].connectAddress "\"leaf[2].H[1]\""
param **.leaf[1].H[0].app[1].connectAddress "\"leaf[0].H[3]\""
param **.leaf[1].H[0].app[2].connectAddress "\"leaf[0].H[2]\""
param **.leaf[1].H[0].app[3].connectAddress "\"leaf[2].H[1]\""
param **.leaf[1].H[0].app[4].connectAddress "\"leaf[4].H[3]\""
param **.leaf[1].H[1].app[1].connectAddress "\"leaf[3].H[2]\""
param **.leaf[1].H[1].app[2].connectAddress "\"leaf[4].H[4]\""
param **.leaf[1].H[1].app[3].connectAddress "\"leaf[3].H[0]\""
param **.leaf[1].H[1].app[4].connectAddress "\"leaf[2].H[4]\""
param **.leaf[1].H[2].app[1].connectAddress "\"leaf[1].H[0]\""
param **.leaf[1].H[2].app[2].connectAddress "\"leaf[1].H[0]\""
param **.leaf[1].H[2].app[3].connectAddress "\"leaf[1].H[3]\""
param **.leaf[1].H[2].app[4].connectAddress "\"leaf[1].H[1]\""
param **.leaf[1].H[3].app[1].connectAddress "\"leaf[1].H[0]\""
param **.leaf[1].H[3].app[2].connectAddress "\"leaf[1].H[2]\""
param **.leaf[1].H[3].app[3].connectAddress "\"leaf[1].H[0]\""
param **.leaf[1].H[3].app[4].connectAddress "\"leaf[1].H[4]\""
param **.leaf[1].H[4].app[1].connectAddress "\"leaf[4].H[2]\""
param **.leaf[1].H[4].app[2].connectAddress "\"leaf[4].H[0]\""
param **.leaf[1].H[4].app[3].connectAddress "\"leaf[2].H[0]\""
param **.leaf[1].H[4].app[4].connectAddress "\"leaf[3].H[3]\""
param **.leaf[2].H[0].app[1].connectAddress "\"leaf[2].H[3]\""
param **.leaf[2].H[0].app[2].connectAddress "\"leaf[2].H[4]\""
param **.leaf[2].H[0].app[3].connectAddress "\"leaf[2].H[2]\""
param **.leaf[2].H[0].app[4].connectAddress "\"leaf[2].H[3]\""
param **.leaf[2].H[1].app[1].connectAddress "\"leaf[2].H[4]\""
param **.leaf[2].H[1].app[2].connectAddress "\"leaf[2].H[2]\""
param **.leaf[2].H[1].app[3].connectAddress "\"leaf[2].H[3]\""
param **.leaf[2].H[1].app[4].connectAddress "\"leaf[2].H[2]\""
param **.leaf[2].H[2].app[1].connectAddress "\"leaf[2].H[1]\""
param **.leaf[2].H[2].app[2].connectAddress "\"leaf[2].H[4]\""
param **.leaf[2].H[2].app[3].connectAddress "\"leaf[2].H[3]\""
param **.leaf[2].H[2].app[4].connectAddress "\"leaf[2].H[3]\""
param **.leaf[2].H[3].app[1].connectAddress "\"leaf[4].H[3]\""
param **.leaf[2].H[3].app[2].connectAddress "\"leaf[3].H[4]\""
param **.leaf[2].H[3].app[3].connectAddress "\"leaf[4].H[2]\""
param **.leaf[2].H[3].app[4].connectAddress "\"leaf[3].H[4]\""
param **.leaf[2].H[4].app[1].connectAddress "\"leaf[4].H[1]\""
param **.leaf[2].H[4].app[2].connectAddress "\"leaf[4].H[3]\""
param **.leaf[2].H[4].app[3].connectAddress "\"leaf[3].H[4]\""
param **.leaf[2].H[4].app[4].connectAddress "\"leaf[1].H[1]\""
param **.leaf[3].H[0].app[1].connectAddress "\"leaf[3].H[2]\""
param **.leaf[3].H[0].app[2].connectAddress "\"leaf[3].H[3]\""
param **.leaf[3].H[0].app[3].connectAddress "\"leaf[3].H[3]\""
param **.leaf[3].H[0].app[4].connectAddress "\"leaf[3].H[1]\""
param **.leaf[3].H[1].app[1].connectAddress "\"leaf[2].H[2]\""
param **.leaf[3].H[1].app[2].connectAddress "\"leaf[2].H[2]\""
param **.leaf[3].H[1].app[3].connectAddress "\"leaf[2].H[3]\""
param **.leaf[3].H[1].app[4].connectAddress "\"leaf[0].H[3]\""
param **.leaf[3].H[2].app[1].connectAddress "\"leaf[3].H[4]\""
param **.leaf[3].H[2].app[2].connectAddress "\"leaf[3].H[1]\""
param **.leaf[3].H[2].app[3].connectAddress "\"leaf[3].H[1]\""
param **.leaf[3].H[2].app[4].connectAddress "\"leaf[3].H[0]\""
param **.leaf[3].H[3].app[1].connectAddress "\"leaf[0].H[0]\""
param **.leaf[3].H[3].app[2].connectAddress "\"leaf[0].H[0]\""
param **.leaf[3].H[3].app[3].connectAddress "\"leaf[4].H[3]\""
param **.leaf[3].H[3].app[4].connectAddress "\"leaf[1].H[2]\""
param **.leaf[3].H[4].app[1].connectAddress "\"leaf[4].H[3]\""
param **.leaf[3].H[4].app[2].connectAddress "\"leaf[2].H[2]\""
param **.leaf[3].H[4].app[3].connectAddress "\"leaf[4].H[4]\""
param **.leaf[3].H[4].app[4].connectAddress "\"leaf[0].H[3]\""
param **.leaf[4].H[0].app[1].connectAddress "\"leaf[2].H[3]\""
param **.leaf[4].H[0].app[2].connectAddress "\"leaf[2].H[0]\""
param **.leaf[4].H[0].app[3].connectAddress "\"leaf[1].H[4]\""
param **.leaf[4].H[0].app[4].connectAddress "\"leaf[1].H[4]\""
param **.leaf[4].H[1].app[1].connectAddress "\"leaf[4].H[3]\""
param **.leaf[4].H[1].app[2].connectAddress "\"leaf[4].H[3]\""
param **.leaf[4].H[1].app[3].connectAddress "\"leaf[4].H[2]\""
param **.leaf[4].H[1].app[4].connectAddress "\"leaf[4].H[4]\""
param **.leaf[4].H[2].app[1].connectAddress "\"leaf[4].H[1]\""
param **.leaf[4].H[2].app[2].connectAddress "\"leaf[4].H[1]\""
param **.leaf[4].H[2].app[3].connectAddress "\"leaf[4].H[4]\""
param **.leaf[4].H[2].app[4].connectAddress "\"leaf[4].H[1]\""
param **.leaf[4].H[3].app[1].connectAddress "\"leaf[3].H[2]\""
param **.leaf[4].H[3].app[2].connectAddress "\"leaf[3].H[4]\""
param **.leaf[4].H[3].app[3].connectAddress "\"leaf[1].H[1]\""
param **.leaf[4].H[3].app[4].connectAddress "\"leaf[0].H[3]\""
param **.leaf[4].H[4].app[1].connectAddress "\"leaf[0].H[3]\""
param **.leaf[4].H[4].app[2].connectAddress "\"leaf[0].H[4]\""
param **.leaf[4].H[4].app[3].connectAddress "\"leaf[1].H[1]\""
param **.leaf[4].H[4].app[4].connectAddress "\"leaf[2].H[0]\""
param **.leaf[0].H[0].app[1].sendScript "\"2 127; 3 1442; 4 1478; 5 167; 10 178; 12 219; 13 252; 16 1454; 17 1468; 18 1414; 26 132; 27 1427; 28 174; 29 1480; 31 237; 33 1476; 35 1420; 37 1417; 38 1482; 39 1436; 40 1409; 41 1415; 42 1486; 43 1477; 45 296; 46 296; 47 125; 49 157; 50 288; 52 119; 53 138; 55 1402; 57 1482; 59 1495; 60 188; 61 1421; 62 1493; 64 1410; 65 1453; 66 1498; 68 1489; 70 100; 71 101; 76 172; 79 181; 80 279; 85 288; 90 198; 92 1442; 93 1413; 94 1437; 95 1451; 96 191; 97 1406; 100 1447; 102 1456; 105 1467; 106 224; 107 1416; 108 288; 115 227; 118 1418; 123 263; 124 237; 126 223; 127 1452; 129 1427; 131 1479; 133 1455; 134 1422; 136 1452; 138 1434; 140 216; 142 1436; 144 1431; 145 1483; 146 227; 147 1436; 149 120; 151 136; 153 239; 155 257; 156 181; 157 1429; 158 1464; 159 174; 160 258; 165 1495; 172 235; 173 155; 174 295; 175 1458; 176 1450; 179 189; 180 119; 181 122; 182 1411; 184 282; 186 164; 188 1404; 190 1458; 192 1406; 193 1436; 195 142; 196 1495; 197 1415; 199 234; 200 1438; 201 179; 202 1453; 203 1415; 205 1439; 208 224; 209 220; 210 1424; 212 1487; 214 146; 215 228; 216 265; 217 233; 219 192; 220 224; 221 292; 222 1494; 225 162; 233 250; 235 1461; 237 265; 240 139; 241 181; 243 1459; 244 1444; 245 1434; 250 100; 253 1400; 255 143; 261 1469; 265 1480; 273 1420; 274 1486; 277 1486; 279 163; 280 293; 283 1496; 286 279; 287 261; 289 102; 290 1465; 292 267; 295 1439; 297 1413; 299 235; 304 1455; 305 266; 306 166; 307 283; 309 255; 310 110; 312 187; 313 1489; 314 1457; 315 1414; 318 1490; 323 180; 329 287; 331 113; 334 272; 335 255; 337 1412; 338 159; 340 1404; 341 1419; 343 278; 345 271; 346 127; 351 1448; 353 259; 355 217; 356 1476; 359 284; 362 1479; 363 165; 366 222; 371 205; 372 1498; 376 1403; 378 1495; 379 1406; 380 1459; 383 1438; 385 178; 388 1407; 389 218; 391 266; 392 188; 393 1480; 394 1413; 396 1422; 400 1421; 403 117; 406 144; 408 1494; 411 1484; 414 238; 416 180; 417 1419; 418 1456; 422 1415; 425 1469; 426 1407; 428 268; 432 225; 433 1408; 439 122; 440 1478; 441 137; 442 1466; 443 1424; 445 236; 446 1438; 447 1437; 448 281; 450 200; 453 1400; 456 226; 457 1493; 462 206; 463 135; 466 209; 467 207; 470 1448; 471 1403; 473 230; 474 178; 475 1460; 476 1436; 478 1483; 481 125; 484 1490; 486 130; 487 219; 488 1422; 490 264; 493 1424; 494 1485; 496 162; 498 215; 501 142; 503 1475; 504 1466; 507 213; 508 186; 511 1458; 514 166; 515 111; 516 182; 518 1464; 519 1433; 520 1498; 523 290; 526 299; 528 1485; 529 1476; 532 277; 533 195; 534 274; 537 1447; 539 1490; 540 243; 541 297; 544 1404; 548 224; 549 1447; 550 205; 555 1453; 556 1409; 557 149; 558 205; 562 268; 563 144; 565 152; 567 1439; 568 187; 570 1493; 571 1439; 572 1492; 573 261; 574 1449; 576 1451; 577 218; 579 109; 580 139; 582 1402; 583 1450; 585 1442; 586 243; 587 1418; 588 121; 589 1423; 592 1463; 595 1433; 597 1480; 600 116; 601 167; 602 1467; 607 227; 609 252; 611 293; 612 240; 614 1485; 615 253; 616 1461; 617 107; 620 266; 621 1443; 622 160; 624 287; 626 138; 629 1461; 630 1435; 631 282; 633 1460; 634 1493; 637 1495; 641 103; 644 1431; 645 158; 646 1418; 649 283; 651 1481; 653 278; 655 186; 656 156; 657 121; 659 175; 660 175; 662 105; 665 248; 669 268; 674 1412; 678 290; 679 1400; 685 1473; 688 177; 690 207; 696 1445; 697 264; 698 1432; 700 1408; 701 147; 703 170; 705 284; 709 1452; 711 1471; 712 1409; 714 121; 718 178; 719 220; 722 250; 725 1444; 726 277; 727 1436; 730 1421; 732 294; 733 253; 735 127; 736 1460; 740 201; 742 282; 745 1419; 746 165; 748 151; 749 1465; 752 1439; 755 243; 756 1409; 758 120; 759 133; 762 276; 767 103; 769 1491; 770 214; 776 145; 779 1457; 782 1413; 785 1448; 788 252; 790 1449; 791 1422; 793 199; 794 190; 797 177; 800 1439; 803 179; 805 1401; 806 1467; 807 277; 808 1414; 809 1454; 810 1454; 811 1419; 812 285; 813 1499; 814 1455; 815 184; 816 1487; 817 291; 818 1476; 819 284; 820 1453; 821 1477; 825 179; 829 1433; 831 1484; 837 144; 838 1458; 842 117; 845 1445; 849 137; 852 1487; 854 1426; 855 1413; 856 177; 859 117; 860 1498; 863 172; 865 185; 866 1423; 869 1442; 873 287; 874 1439; 875 1469; 876 292; 877 1405; 879 1470; 881 1428; 882 233; 885 1444; 890 1490; 892 1456; 893 1448; 895 181; 898 1475; 899 1446; 903 1474; 906 170; 910 169; 912 1455; 914 282; 915 1437; 916 1466; 917 220; 918 1455; 919 1483; 920 145; 921 1487; 922 221; 923 209; 924 202; 927 1484; 929 159; 931 240; 934 170; 939 197; 941 1467; 945 197; 947 1410; 949 1467; 952 187; 953 1457; 954 123; 955 1464; 956 298; 957 1443; 958 275; 959 289; 966 1421; 967 1426; 968 194; 969 148; 970 1439; 972 1436; 974 207; 976 221; 977 180; 983 1475; 987 242; 988 1410; 989 147; 991 144; 993 1496; 994 214; 995 128; 997 1429; 1003 1436; 1004 221; 1005 1403; 1006 1441; 1007 159; 1009 252; 1012 242; 1016 246; 1022 108; 1023 1431; 1032 1470; 1033 1464; 1035 196; 1037 1476; 1038 250; 1039 1408; 1040 1416; 1041 144; 1044 289; 1046 134; 1050 147; 1051 1485; 1052 1447; 1054 1450; 1055 1430; 1057 142; 1062 277; 1063 125; 1067 149; 1069 121; 1070 1494; 1071 1435; 1072 1403; 1073 1418; 1074 1455; 1077 1403; 1078 1421; 1079 1436; 1081 105; 1082 1478; 1083 1493; 1084 1420; 1087 134; 1088 1420; 1092 1412; 1096 1411; 1098 1493; 1099 1492; 1100 1489; 1101 244; 1102 285; 1105 262; 1106 290; 1109 1481; 1110 224; 1113 209; 1116 1498; 1118 147; 1119 1427; 1120 1441; 1122 179; 1123 1477; 1124 176; 1128 1433; 1129 1446; 1130 134; 1132 1448; 1134 1495; 1136 277; 1138 1414; 1140 1476; 1141 203; 1144 1483; 1146 172; 1147 107; 1151 1415; 1154 261; 1155 1406; 1157 1478; 1159 1406; 1161 1422; 1166 100; 1167 281; 1168 195; 1170 1417; 1171 1474; 1172 1479; 1174 195; 1175 217; 1177 1423; 1181 130; 1182 1492; 1187 1483; 1188 148; 1191 225; 1192 1454; 1193 1415; 1195 125; 1197 1403; 1198 136; 1199 210; 1201 183; 1205 200; 1206 177; 1207 159; 1208 1417; 1209 268; 1210 1456; 1211 295; 1213 1484; 1214 289; 1215 1450; 1220 1406; 1221 1468; 1222 183; 1223 243; 1224 1429; 1227 295; 1229 1434; 1232 190; 1233 1449; 1234 1445; 1235 1483; 1239 220; 1240 189; 1241 185; 1244 190; 1247 1425; 1250 1430; 1251 104; 1252 1496; 1257 1495; 1258 230; 1259 163; 1260 112; 1266 224; 1267 148; 1268 137; 1272 164; 1273 1419; 1275 1467; 1277 1445; 1278 1429; 1281 1408; 1282 100; 1283 294; 1287 1479; 1288 197; 1291 1450; 1292 1432; 1293 139; 1296 1430; 1298 223; 1302 1480; 1303 1490; 1304 278; 1307 1461; 1308 1400; 1309 226; 1310 262; 1312 1461; 1313 293; 1316 1497; 1317 241; 1319 1458; 1320 1453; 1321 1492; 1322 1455; 1323 212; 1325 1410; 1326 1469; 1327 132; 1329 1449; 1331 133; 1332 165; 1334 1433; 1337 1472; 1338 1422; 1343 1460; 1344 1422; 1347 1435; 1348 243; 1350 291; 1352 276; 1353 216; 1357 231; 1358 262; 1359 101; 1364 1450; 1365 1458; 1366 1431; 1367 269; 1368 105; 1370 176; 1373 260; 1375 1458; 1378 178; 1380 132; 1381 1458; 1385 290; 1386 1469; 1392 1405; 1394 1459; 1396 273; 1397 178; 1399 1404; 1401 1410; 1402 1421; 1403 113; 1404 148; 1405 1487; 1408 142; 1412 1419; 1413 1458; 1415 234; 1419 1450; 1420 274; 1421 149; 1422 269; 1423 160; 1427 253; 1429 1425; 1433 1420; 1435 207; 1436 1428; 1438 197; 1439 1448; 1440 170; 1441 216; 1442 1411; 1443 1445; 1444 114; 1446 177; 1447 1424; 1448 1439; 1451 1434; 1452 276; 1454 1488; 1455 1413; 1457 250; 1459 159; 1461 1463; 1462 169; 1464 200; 1466 1498; 1471 1470; 1473 108; 1474 188; 1476 1433; 1478 149; 1480 267; 1490 292; 1493 147; 1494 1481; 1495 170; 1496 289; 1497 289; 1498 269; 1499 1433; 1502 1445; 1503 205; 1505 137; 1507 115; 1509 1469; 1512 145; 1513 1463; 1515 200; 1516 218; 1520 129; 1522 1467; 1527 1401; 1528 1403; 1532 1436; 1537 1408; 1538 295; 1539 194; 1541 1422; 1543 1464; 1544 1415; 1545 1472; 1550 1426; 1554 188; 1555 1472; 1557 1467; 1558 127; 1559 139; 1563 1460; 1566 1476; 1567 1429; 1569 1486; 1572 1430; 1574 1484; 1575 1407; 1576 1429; 1577 1407; 1578 1408; 1579 1456; 1580 139; 1582 171; 1583 1403; 1586 133; 1587 298; 1589 1414; 1591 139; 1593 266; 1594 133; 1595 141; 1596 103; 1603 1456; 1604 1408; 1605 1493; 1607 154; 1610 125; 1612 1437; 1615 1473; 1616 247; 1620 1405; 1622 109; 1623 1421; 1624 270; 1625 1470; 1626 1428; 1628 152; 1629 1458; 1630 262; 1631 139; 1635 169; 1636 239; 1641 236; 1642 196; 1643 1436; 1644 1439; 1646 187; 1647 1432; 1648 1479; 1649 288; 1651 223; 1652 1477; 1655 1405; 1660 240; 1664 1484; 1665 192; 1668 126; 1669 1446; 1670 130; 1673 1431; 1674 284; 1675 244; 1677 1433; 1679 1492; 1681 1445; 1682 234; 1685 1430; 1686 1458; 1688 1451; 1691 289; 1692 165; 1694 1489; 1695 259; 1698 1416; 1700 134; 1705 1447; 1706 1455; 1707 1494; 1710 1401; 1712 115; 1714 1459; 1719 1418; 1720 1434; 1722 1490; 1724 108; 1725 225; 1726 189; 1728 1427; 1731 174; 1732 136; 1733 262; 1735 1484; 1737 108; 1739 1471; 1740 257; 1741 122; 1742 231; 1743 1477; 1747 292; 1748 212; 1750 1442; 1751 1484; 1753 1427; 1754 294; 1758 1462; 1760 1477; 1761 185; 1762 275; 1765 1440; 1767 1476; 1771 1420; 1772 1403; 1773 1482; 1775 251; 1776 118; 1778 226; 1780 136; 1782 1403; 1786 1473; 1790 139; 1791 224; 1793 213; 1794 1443; 1795 296; 1796 163; 1797 1435; 1798 251; 1800 1434; 1804 115; 1805 128; 1806 149; 1807 126; 1813 154; 1814 200; 1816 1484; 1818 1439; 1820 1475; 1822 1463; 1823 212; 1824 1479; 1826 1430; 1829 1442; 1830 142; 1831 174; 1835 1491; 1839 232; 1840 192; 1842 183; 1843 1466; 1845 291; 1848 238; 1851 1446; 1852 1448; 1853 1442; 1854 238; 1855 156; 1856 258; 1857 179; 1859 105; 1860 1427; 1862 1491; 1867 278; 1869 1482; 1871 1400; 1875 215; 1877 251; 1878 1466; 1880 166; 1881 182; 1882 1458; 1885 1450; 1886 108; 1890 1459; 1891 268; 1893 1454; 1894 237; 1897 1409; 1898 125; 1899 159; 1903 158; 1906 255; 1907 1407; 1908 1493; 1909 194; 1910 194; 1912 284; 1913 1432; 1916 101; 1919 1421; 1921 1424; 1923 1470; 1932 1490; 1933 1468; 1934 178; 1935 236; 1936 1494; 1939 1409; 1940 247; 1941 1429; 1943 219; 1945 1483; 1946 1475; 1947 1472; 1948 1409; 1950 1466; 1953 214; 1954 140; 1956 1469; 1957 249; 1960 1430; 1963 292; 1964 1489; 1965 1490; 1967 273; 1968 1425; 1970 287; 1974 124; 1976 1447; 1977 195; 1978 1471; 1979 218; 1980 1421; 1981 123; 1982 249; 1985 1402; 1988 265; 1989 179; 1990 1439; 1991 164; 1993 1478; 1994 287; 1998 1486; 1999 283; 2001 167; 2002 1449; 2003 1446; 2005 1474; 2006 297; 2007 1403; 2008 176; 2010 212; 2012 107; 2013 179; 2014 241; 2017 284; 2019 126; 2020 290; 2024 1491; 2025 265; 2027 157; 2028 1401; 2029 139; 2031 1421; 2032 1402; 2033 159; 2037 1476; 2038 1437; 2039 171; 2041 103; 2044 1442; 2046 1479; 2047 1495; 2050 234; 2051 112; 2052 1487; 2053 1459; 2054 1425; 2055 1428; 2061 1452; 2064 129; 2065 114; 2067 1482; 2069 270; 2070 226; 2073 181; 2074 196; 2077 155; 2078 293; 2079 1451; 2080 1468; 2081 1491; 2084 1480; 2086 1485; 2091 1402; 2093 1424; 2098 249; 2099 176; 2100 205; 2102 187; 2105 1429; 2106 266; 2108 1451; 2109 211; 2110 190; 2115 163; 2117 154; 2122 1450; 2124 1412; 2128 223; 2129 283; 2130 284; 2131 291; 2132 103; 2133 169; 2134 1460; 2136 144; 2137 104; 2138 291; 2139 130; 2140 136; 2141 227; 2142 158; 2144 1423; 2146 273; 2147 279; 2148 285; 2152 1412; 2154 111; 2155 1469; 2157 1412; 2158 225; 2161 1423; 2164 1457; 2167 1441; 2169 120; 2170 1470; 2171 185; 2173 1478; 2176 1462; 2177 179; 2179 1488; 2181 1441; 2182 222; 2184 1457; 2186 1433; 2189 1426; 2191 229; 2192 1404; 2193 1497; 2194 243; 2195 235; 2196 1486; 2199 281; 2200 1472; 2201 1443; 2202 1417; 2204 1446; 2207 1400; 2208 176; 2212 1482; 2213 1455; 2214 1451; 2216 1456; 2219 299; 2221 230; 2222 1423; 2223 161; 2225 1434; 2227 295; 2229 1413; 2230 203; 2232 1471; 2233 1401; 2234 259; 2235 227; 2236 1410; 2237 226; 2238 1411; 2239 194; 2243 1471; 2246 1443; 2249 289; 2250 1486; 2251 154; 2252 1489; 2254 266; 2255 1423; 2257 1431; 2258 276; 2259 1425; 2260 1429; 2261 169; 2262 115; 2263 1490; 2264 1401; 2265 1494; 2266 274; 2267 116; 2270 1475; 2271 186; 2272 1477; 2273 195; 2277 1495; 2278 110; 2283 250; 2285 161; 2288 1447; 2290 276; 2291 1457; 2292 1459; 2296 125; 2300 279; 2301 1497; 2304 1489; 2305 126; 2306 1422; 2308 233; 2309 1485; 2310 1400; 2312 1477; 2314 113; 2315 1492; 2316 1467; 2318 166; 2321 1425; 2323 1443; 2324 1499; 2325 1428; 2326 130; 2328 1425; 2329 145; 2332 1451; 2334 1494; 2336 1488; 2337 106; 2338 283; 2339 1480; 2343 1402; 2345 1471; 2349 1403; 2350 158; 2352 214; 2353 1444; 2356 192; 2358 1401; 2359 1489; 2360 1436; 2361 1413; 2362 267; 2363 211; 2364 1406; 2366 124; 2368 1439; 2372 1491; 2378 1435; 2379 160; 2380 1453; 2382 1408; 2383 229; 2384 138; 2385 1413; 2386 179; 2387 1450; 2389 1426; 2392 1415; 2395 1450; 2396 1423; 2397 130; 2400 130; 2405 175; 2406 153; 2407 252; 2409 1425; 2410 140; 2411 147; 2412 1447; 2413 226; 2414 1473; 2415 1479; 2417 211; 2418 135; 2421 267; 2423 1439; 2426 1418; 2427 265; 2428 293; 2430 1494; 2431 1484; 2433 225; 2436 1401; 2438 1490; 2440 255; 2441 127; 2443 100; 2444 1497; 2445 1472; 2446 1440; 2447 1483; 2448 143; 2449 112; 2450 1490; 2451 1404; 2452 153; 2453 118; 2457 128; 2460 1402; 2462 280; 2464 1489; 2465 1474; 2467 252; 2468 228; 2470 248; 2474 1466; 2476 1491; 2477 1461; 2478 1481; 2480 1459; 2484 1476; 2489 192; 2490 185; 2493 126; 2498 1491; 2499 1495; 2500 1475; 2502 1488; 2507 266; 2508 274; 2510 224; 2511 1480; 2517 148; 2524 210; 2528 1400; 2530 101; 2531 1469; 2533 245; 2534 256; 2535 134; 2537 1460; 2544 174; 2545 116; 2546 1459; 2549 1437; 2550 295; 2551 121; 2552 1403; 2555 1488; 2557 264; 2558 151; 2559 123; 2561 1486; 2562 177; 2564 298; 2565 145; 2569 1462; 2570 237; 2573 1400; 2574 1427; 2576 173; 2577 1466; 2578 1457; 2579 218; 2580 159; 2581 1429; 2582 1497; 2583 127; 2587 1487; 2588 1475; 2591 1430; 2592 1458; 2595 1428; 2596 219; 2599 245; 2601 1466; 2604 193; 2609 250; 2612 163; 2613 1464; 2618 1482; 2619 251; 2620 261; 2621 158; 2623 236; 2626 108; 2627 1496; 2628 1414; 2629 1408; 2630 247; 2631 1437; 2632 209; 2634 1402; 2635 177; 2637 229; 2638 257; 2639 106; 2640 179; 2642 115; 2644 1425; 2645 1469; 2646 1445; 2647 134; 2648 154; 2649 184; 2650 117; 2654 113; 2659 1402; 2660 1404; 2663 1464; 2666 1464; 2667 130; 2670 229; 2673 290; 2675 205; 2676 131; 2677 190; 2678 210; 2681 1445; 2686 150; 2692 1437; 2695 171; 2697 1414; 2699 1431; 2701 177; 2705 1433; 2706 215; 2707 1479; 2709 104; 2710 1424; 2714 1459; 2715 290; 2720 255; 2722 1443; 2723 159; 2724 221; 2725 124; 2734 1433; 2735 1447; 2736 227; 2737 1475; 2738 1407; 2739 100; 2741 271; 2743 187; 2745 1484; 2752 1417; 2756 171; 2757 1434; 2759 177; 2760 151; 2761 285; 2763 1408; 2767 1412; 2768 184; 2769 117; 2770 283; 2772 1417; 2773 103; 2774 297; 2776 1447; 2777 211; 2778 100; 2780 1469; 2783 1457; 2785 194; 2786 281; 2787 1486; 2788 1473; 2789 150; 2793 148; 2794 229; 2795 157; 2796 1466; 2797 1455; 2798 1437; 2799 272; 2800 1407; 2803 1413; 2806 1475; 2809 1484; 2810 250; 2811 133; 2812 217; 2813 1451; 2815 173; 2816 1476; 2818 103; 2819 277; 2821 218; 2822 1459; 2824 176; 2825 1466; 2826 242; 2832 222; 2835 1466; 2838 122; 2839 1482; 2843 1493; 2847 192; 2849 1427; 2851 1418; 2852 190; 2853 249; 2856 101; 2857 198; 2858 1413; 2861 1485; 2862 1441; 2863 101; 2864 1443; 2866 1461; 2867 1481; 2868 1478; 2871 1435; 2873 233; 2877 121; 2883 289; 2884 138; 2886 1473; 2887 204; 2888 1472; 2889 191; 2890 1429; 2892 162; 2894 182; 2896 285; 2897 126; 2903 245; 2908 1461; 2909 219; 2911 199; 2914 208; 2917 288; 2918 1452; 2919 1445; 2921 1431; 2923 214; 2924 1449; 2926 1431; 2927 123; 2928 1462; 2930 1495; 2933 1446; 2934 1403; 2937 1465; 2938 163; 2942 1445; 2944 163; 2945 200; 2946 1465; 2947 1424; 2952 1444; 2954 1484; 2956 169; 2958 278; 2959 1421; 2961 1425; 2962 267; 2963 1477; 2965 1446; 2966 1467; 2969 1451; 2970 109; 2971 132; 2972 134; 2973 169; 2975 218; 2981 216; 2982 284; 2984 1456; 2985 1426; 2986 1408; 2989 252; 2990 1468; 2993 173; 2994 1403; 2995 1404; 2996 256; 2997 124; 2999 209; 3000 1472; 3003 104; 3004 176; 3007 239; 3009 233; 3015 297; 3016 161; 3020 1478; 3023 174; 3025 1493; 3028 1430; 3030 139; 3031 206; 3032 1449; 3033 133; 3034 136; 3039 258; 3041 216; 3044 220; 3045 246; 3052 1458; 3053 1402; 3057 1480; 3059 1475; 3060 173; 3062 151; 3063 1495; 3064 1444; 3065 1463; 3066 1489; 3069 1431; 3070 275; 3076 218; 3078 290; 3079 1426; 3080 164; 3081 200; 3083 148; 3084 288; 3087 112; 3088 198; 3091 172; 3096 104; 3097 244; 3098 1454; 3104 168; 3105 216; 3107 1419; 3111 245; 3114 1403; 3115 1464; 3116 1447; 3118 188; 3121 287; 3122 1465; 3123 1449; 3124 1407; 3125 246; 3127 1414; 3128 287; 3129 1401; 3130 1483; 3132 1413; 3133 1482; 3138 173; 3139 119; 3143 157; 3146 1434; 3148 1469; 3150 152; 3151 1437; 3152 1476; 3154 279; 3155 186; 3158 1423; 3164 1411; 3166 158; 3167 106; 3168 158; 3170 1424; 3171 1465; 3172 1404; 3175 210; 3181 183; 3184 1496; 3185 108; 3187 159; 3189 1498; 3193 153; 3196 1417; 3197 1462; 3201 233; 3202 1420; 3203 173; 3204 1421; 3205 240; 3206 102; 3209 175; 3210 284; 3212 254; 3213 1445; 3214 1491; 3216 1437; 3218 1413; 3219 286; 3220 267; 3221 113; 3227 1497; 3228 102; 3229 1452; 3232 147; 3233 1481; 3234 1420; 3235 284; 3237 1496; 3238 1401; 3241 1400; 3243 101; 3244 213; 3245 1464; 3247 253; 3249 112; 3252 290; 3254 135; 3256 1448; 3258 139; 3263 1433; 3266 267; 3267 268; 3268 1412; 3269 141; 3271 137; 3272 262; 3275 297; 3276 1454; 3278 283; 3279 1489; 3280 1475; 3281 229; 3283 1478; 3284 155; 3285 1426; 3291 1425; 3293 1452; 3298 1465; 3299 1465; 3300 1424; 3301 1432; 3303 1435; 3307 260; 3309 186; 3310 237; 3311 271; 3313 1476; 3314 194; 3315 1476; 3316 272; 3321 1436; 3322 1413; 3324 102; 3326 170; 3330 183; 3332 1455; 3333 177; 3335 1426; 3336 1491; 3340 1400; 3344 1493; 3345 1468; 3347 158; 3348 273; 3349 231; 3351 1475; 3352 1440; 3354 147; 3356 1438; 3357 183; 3358 113; 3359 1480; 3361 1458; 3363 1489; 3364 200; 3365 261; 3368 1409; 3373 1415; 3374 1439; 3376 216; 3378 1468; 3380 1461; 3381 1422; 3382 179; 3384 1438; 3385 1476; 3386 151; 3389 127; 3393 212; 3397 263; 3399 1472; 3400 1434; 3402 191; 3406 1442; 3408 119; 3409 257; 3411 1452; 3412 284; 3413 1498; 3414 1415; 3417 221; 3418 1482; 3419 1435; 3422 105; 3428 1447; 3431 216; 3432 240; 3433 1423; 3436 1416; 3438 1437; 3440 128; 3441 290; 3443 257; 3448 1423; 3449 165; 3450 1469; 3458 1466; 3462 1401; 3464 285; 3465 1467; 3466 1495; 3468 282; 3470 215; 3476 109; 3477 1416; 3479 1411; 3480 1495; 3481 170; 3482 221; 3484 110; 3487 149; 3488 1402; 3489 1446; 3492 259; 3493 1457; 3494 100; 3497 162; 3498 221; 3499 141; 3501 1485; 3503 207; 3508 135; 3510 211; 3511 162; 3513 1437; 3514 1456; 3516 152; 3518 279; 3519 141; 3522 251; 3523 1435; 3528 1481; 3529 1497; 3530 1499; 3533 1450; 3536 1419; 3537 1416; 3538 1482; 3539 139; 3540 1459; 3542 287; 3544 1481; 3546 259; 3547 146; 3548 197; 3549 1413; 3550 1497; 3551 1435; 3552 1477; 3553 127; 3554 292; 3556 1411; 3558 1444; 3559 1467; 3562 157; 3563 1450; 3564 144; 3565 1449; 3566 216; 3571 110; 3572 1400; 3573 270; 3574 1421; 3575 1460; 3576 129; 3577 1496; 3579 106; 3580 235; 3581 1496; 3584 1487; 3588 258; 3589 1464; 3592 178; 3593 1444; 3596 1489; 3597 152;\""
param **.leaf[0].H[0].app[2].sendScript "\"2 1418; 3 1433; 5 1453; 8 178; 9 1486; 12 1420; 14 262; 16 1413; 17 1415; 19 1409; 22 1401; 23 191; 28 115; 32 1457; 33 206; 35 175; 36 138; 37 1480; 40 1420; 42 163; 44 109; 45 163; 49 1415; 50 112; 55 137; 56 173; 57 1427; 58 1418; 60 140; 61 1467; 63 1465; 64 1400; 66 177; 67 1485; 72 221; 75 102; 76 121; 77 119; 80 1424; 81 1427; 82 1424; 87 1444; 88 1498; 89 1401; 90 1447; 92 1457; 94 1400; 95 291; 96 133; 99 1437; 102 1454; 108 1466; 109 1448; 111 1432; 114 1431; 115 1462; 116 1470; 119 1436; 120 1412; 122 110; 124 203; 126 1413; 127 139; 128 266; 129 173; 130 133; 131 113; 132 286; 136 227; 137 1480; 140 1447; 141 182; 143 139; 144 191; 151 158; 153 196; 154 219; 159 1440; 161 149; 162 1451; 164 269; 167 1403; 168 1441; 170 167; 171 1429; 174 1452; 175 1481; 176 1439; 177 1461; 179 1424; 181 189; 184 1446; 185 192; 188 1459; 191 1490; 192 103; 193 251; 194 1455; 195 1490; 197 109; 198 298; 199 248; 200 218; 202 1412; 203 108; 204 1420; 210 106; 212 1487; 214 213; 215 1479; 216 294; 217 103; 219 176; 222 128; 223 186; 225 1403; 226 1437; 227 108; 228 1493; 229 1477; 230 1435; 231 1420; 234 1424; 240 1430; 242 181; 245 169; 246 1424; 248 146; 251 202; 252 155; 253 175; 261 167; 264 225; 271 1463; 272 197; 273 297; 274 264; 275 1495; 276 290; 277 146; 279 140; 280 1428; 281 155; 282 1487; 283 1405; 287 185; 288 1442; 289 280; 290 297; 291 1487; 292 208; 293 234; 294 224; 297 189; 298 120; 300 1464; 301 1499; 302 1483; 303 1435; 308 1457; 310 1439; 312 1402; 316 254; 319 172; 320 223; 321 142; 323 102; 325 1405; 326 1403; 327 161; 329 1423; 330 259; 331 1494; 332 1459; 333 1470; 334 1484; 336 1481; 338 237; 340 1458; 342 1437; 343 1478; 344 134; 348 1463; 350 1421; 352 1493; 353 1488; 354 145; 355 104; 359 212; 361 184; 365 1434; 369 250; 371 170; 375 1402; 376 1424; 377 156; 380 1470; 381 142; 382 1409; 386 1482; 387 1461; 388 278; 391 1414; 392 1472; 393 112; 394 164; 396 1446; 398 1469; 399 240; 401 163; 402 264; 403 141; 406 1461; 407 1470; 408 210; 409 1436; 413 132; 414 1411; 415 135; 417 1450; 418 223; 419 178; 423 230; 426 124; 427 1494; 431 107; 432 128; 435 1481; 438 264; 439 1422; 442 281; 444 184; 446 193; 447 270; 451 1461; 453 283; 454 1405; 457 100; 458 279; 459 134; 460 109; 462 1467; 463 280; 467 104; 470 1499; 471 1487; 472 1488; 473 279; 475 160; 478 1463; 482 134; 483 1469; 486 275; 492 100; 493 203; 494 1411; 495 267; 496 1488; 497 205; 499 1417; 500 1491; 502 1408; 503 1443; 505 222; 506 232; 509 162; 513 252; 514 106; 515 1460; 517 252; 519 147; 522 1435; 523 295; 528 1480; 529 115; 530 1461; 531 1408; 532 1482; 535 117; 536 1472; 538 1466; 539 1475; 541 272; 544 105; 546 116; 548 218; 550 164; 551 1489; 552 1459; 553 272; 554 150; 555 215; 557 100; 561 156; 564 1458; 567 1467; 568 155; 569 1409; 571 1459; 572 1407; 573 227; 574 1457; 578 291; 580 1423; 581 1466; 582 1416; 584 1470; 585 1475; 586 1468; 588 182; 590 1491; 591 182; 593 189; 596 258; 597 247; 598 137; 603 162; 604 1444; 608 1425; 609 1456; 612 1455; 615 1418; 616 242; 617 1416; 620 249; 621 178; 622 130; 623 119; 624 1449; 630 237; 631 297; 633 1418; 635 1436; 637 210; 639 1496; 641 1409; 643 120; 644 291; 647 180; 649 280; 650 1425; 651 1472; 652 143; 653 115; 655 190; 656 1425; 658 143; 661 1402; 662 1478; 664 260; 668 1496; 671 1461; 676 252; 677 1428; 679 1483; 680 1414; 685 1431; 687 1459; 688 149; 690 274; 691 1463; 692 196; 698 1467; 700 1484; 702 194; 703 236; 704 1427; 705 193; 707 212; 708 296; 709 204; 710 159; 711 1491; 712 1481; 713 162; 714 1494; 715 1462; 719 168; 720 1416; 721 1488; 722 1456; 723 1444; 724 127; 725 1417; 728 1466; 731 1437; 735 1453; 738 1459; 739 175; 742 1452; 748 199; 749 1423; 750 140; 751 1408; 752 1465; 756 1476; 757 1413; 758 1420; 760 1453; 761 189; 762 1404; 763 1431; 764 1443; 765 244; 766 1418; 773 250; 774 144; 775 199; 776 1408; 777 172; 779 159; 782 281; 783 148; 784 108; 786 1435; 787 132; 788 126; 789 1413; 792 1489; 794 137; 795 1425; 796 278; 797 268; 802 222; 803 1408; 804 1405; 805 127; 806 270; 808 280; 810 259; 811 1400; 812 1440; 813 155; 814 1452; 817 177; 820 1480; 823 235; 826 166; 827 297; 829 251; 830 1460; 833 1491; 836 255; 837 101; 840 120; 842 1471; 844 125; 845 1491; 847 1410; 848 1433; 854 1452; 857 269; 859 1455; 860 207; 862 1489; 865 289; 867 1421; 868 1468; 873 1495; 874 1415; 876 196; 877 134; 878 1439; 882 1433; 885 286; 890 105; 891 1485; 896 1465; 899 1432; 904 173; 905 1468; 907 179; 908 1436; 910 267; 912 246; 913 1445; 914 121; 916 1487; 918 1442; 919 214; 921 249; 924 1495; 926 147; 927 1452; 931 1405; 932 1450; 933 216; 935 196; 938 1480; 945 1454; 946 1413; 947 1468; 948 169; 950 140; 953 183; 954 226; 956 192; 957 1456; 959 1456; 960 155; 961 1464; 965 275; 966 1448; 969 145; 970 164; 973 199; 979 1460; 982 1459; 984 183; 986 170; 987 255; 988 1439; 992 295; 993 167; 994 1438; 996 1472; 997 1462; 998 1422; 999 183; 1005 186; 1006 272; 1007 163; 1010 1400; 1014 283; 1016 137; 1017 1473; 1021 218; 1023 222; 1027 1428; 1028 246; 1029 1448; 1033 1469; 1036 189; 1037 1496; 1039 202; 1040 1411; 1041 1463; 1043 1421; 1044 248; 1045 209; 1048 274; 1053 1428; 1054 187; 1055 1459; 1056 111; 1057 237; 1058 258; 1061 1442; 1063 1458; 1066 1477; 1067 209; 1069 1452; 1070 287; 1077 1409; 1078 256; 1081 1474; 1082 267; 1084 1462; 1085 1442; 1088 270; 1091 1447; 1092 1489; 1093 1418; 1096 230; 1100 104; 1105 163; 1108 114; 1113 1433; 1114 207; 1115 259; 1117 1477; 1118 287; 1119 1448; 1120 153; 1121 1401; 1122 1445; 1125 1491; 1129 1481; 1139 1494; 1141 276; 1142 1417; 1147 1400; 1149 1425; 1157 141; 1159 153; 1161 1439; 1163 135; 1165 1493; 1166 1494; 1168 210; 1169 192; 1171 281; 1172 1477; 1173 277; 1174 108; 1175 247; 1177 1466; 1178 1409; 1180 203; 1181 1460; 1184 101; 1185 130; 1186 188; 1187 172; 1188 101; 1192 270; 1193 1435; 1194 1476; 1197 287; 1200 154; 1201 1427; 1203 214; 1204 101; 1205 1416; 1208 221; 1210 189; 1214 132; 1216 1410; 1217 1457; 1220 193; 1221 203; 1222 224; 1224 1417; 1226 1484; 1230 225; 1231 1431; 1232 1459; 1233 145; 1237 1425; 1238 181; 1240 234; 1244 1418; 1246 233; 1247 274; 1251 1454; 1253 1493; 1254 1447; 1259 135; 1260 1466; 1265 277; 1266 115; 1267 232; 1268 106; 1270 186; 1272 298; 1273 188; 1274 206; 1276 1490; 1281 1452; 1282 1498; 1286 288; 1290 175; 1291 230; 1295 144; 1296 221; 1299 1478; 1302 1482; 1303 107; 1305 1487; 1306 1415; 1308 261; 1310 1450; 1311 122; 1312 257; 1313 1496; 1315 143; 1316 1406; 1319 250; 1321 1448; 1322 152; 1323 287; 1324 159; 1325 278; 1326 1414; 1327 227; 1328 281; 1337 173; 1339 1488; 1340 263; 1342 1490; 1343 1423; 1344 1476; 1345 176; 1349 137; 1352 190; 1355 227; 1356 1465; 1361 1471; 1364 1485; 1367 1454; 1368 268; 1371 1499; 1373 1437; 1374 261; 1375 1434; 1376 115; 1377 1469; 1386 112; 1388 1449; 1389 1477; 1391 175; 1392 195; 1394 223; 1395 1479; 1400 1432; 1401 219; 1402 1442; 1404 1496; 1405 1482; 1407 281; 1408 1400; 1411 1442; 1417 1435; 1418 1422; 1425 1479; 1427 1443; 1428 294; 1430 180; 1431 1414; 1433 1412; 1435 1429; 1436 140; 1438 1475; 1439 1416; 1440 213; 1441 1421; 1445 1414; 1450 1428; 1451 1424; 1454 252; 1457 1475; 1458 179; 1460 166; 1464 1416; 1465 146; 1468 1453; 1473 123; 1474 1447; 1479 1499; 1484 1478; 1487 284; 1489 255; 1491 1483; 1494 130; 1495 233; 1496 267; 1498 243; 1499 174; 1500 1406; 1502 173; 1503 262; 1504 122; 1508 250; 1509 1468; 1513 115; 1515 1406; 1517 1471; 1518 1483; 1520 1405; 1521 102; 1524 1403; 1526 1495; 1529 1443; 1530 164; 1531 1460; 1532 1496; 1533 117; 1534 1452; 1540 115; 1541 188; 1546 1462; 1556 1417; 1558 1457; 1560 224; 1568 195; 1569 1469; 1572 143; 1576 186; 1581 117; 1582 1451; 1583 150; 1584 1450; 1585 225; 1587 165; 1588 1414; 1590 297; 1591 1441; 1593 1417; 1594 204; 1596 1458; 1597 1432; 1598 222; 1599 1432; 1601 1410; 1605 1475; 1606 1463; 1607 1476; 1608 106; 1613 1408; 1615 137; 1616 1451; 1617 242; 1618 1432; 1621 139; 1627 1495; 1628 233; 1631 149; 1635 1465; 1637 264; 1639 1485; 1640 1473; 1642 279; 1644 288; 1645 1445; 1646 1465; 1647 283; 1649 149; 1650 1482; 1652 1417; 1654 1460; 1655 296; 1656 1478; 1657 130; 1658 1479; 1659 1465; 1660 1489; 1663 1479; 1665 1425; 1666 173; 1667 1497; 1671 211; 1675 1429; 1676 238; 1678 1484; 1679 222; 1682 1409; 1683 289; 1684 1440; 1685 1428; 1687 191; 1693 194; 1694 1429; 1696 1453; 1699 183; 1702 213; 1703 1414; 1705 1418; 1708 1498; 1709 165; 1710 1446; 1715 113; 1716 1402; 1717 205; 1718 204; 1719 264; 1721 128; 1722 219; 1723 1495; 1726 1413; 1727 100; 1730 1465; 1737 1409; 1739 299; 1741 1441; 1743 1464; 1744 1433; 1747 190; 1748 1473; 1750 1436; 1751 129; 1753 190; 1755 209; 1761 1461; 1762 274; 1763 120; 1766 1426; 1768 1488; 1769 1422; 1770 252; 1771 136; 1772 145; 1774 237; 1775 1435; 1778 1401; 1781 1417; 1784 178; 1785 278; 1787 219; 1789 285; 1790 110; 1792 1471; 1794 1463; 1795 1445; 1797 270; 1798 289; 1799 227; 1800 240; 1801 1448; 1803 255; 1805 1419; 1808 157; 1809 1464; 1813 278; 1814 137; 1818 225; 1819 1447; 1820 220; 1823 1433; 1824 257; 1825 152; 1827 245; 1828 265; 1831 1495; 1833 1484; 1834 295; 1835 1498; 1838 1433; 1840 1408; 1842 1445; 1844 151; 1846 1459; 1848 216; 1851 264; 1853 1420; 1856 151; 1860 144; 1865 258; 1867 101; 1869 115; 1875 1422; 1879 1428; 1880 1472; 1882 115; 1885 162; 1886 237; 1890 124; 1891 119; 1892 134; 1893 211; 1894 1452; 1895 1414; 1901 1431; 1902 1463; 1903 1422; 1909 223; 1910 179; 1913 151; 1915 1424; 1916 1403; 1917 213; 1923 1413; 1924 195; 1927 1448; 1929 234; 1930 120; 1931 1466; 1935 1474; 1936 274; 1937 1433; 1938 1402; 1939 268; 1940 219; 1941 270; 1942 133; 1946 253; 1947 294; 1948 179; 1951 1436; 1952 1490; 1954 1423; 1956 158; 1959 1490; 1963 1488; 1965 1465; 1968 1441; 1971 236; 1972 120; 1973 244; 1975 1499; 1976 110; 1977 155; 1978 1488; 1979 1406; 1980 1486; 1981 1481; 1982 1475; 1983 201; 1985 225; 1986 1415; 1987 159; 1988 1490; 1989 1440; 1990 1497; 1992 173; 1993 1480; 1996 177; 1998 1491; 1999 117; 2004 254; 2007 244; 2008 1479; 2009 142; 2016 1406; 2017 162; 2020 246; 2021 1468; 2022 1430; 2027 1418; 2031 1417; 2032 291; 2040 1402; 2042 1498; 2045 154; 2046 1488; 2047 1443; 2048 1452; 2049 1430; 2053 174; 2055 1402; 2058 1484; 2061 116; 2066 142; 2068 1413; 2069 1420; 2070 1432; 2071 230; 2073 1475; 2074 115; 2075 201; 2076 1479; 2078 1459; 2080 288; 2082 1429; 2083 1455; 2087 1460; 2095 1433; 2096 189; 2097 1432; 2098 1484; 2099 275; 2101 237; 2104 1463; 2106 1448; 2108 1441; 2111 1416; 2112 202; 2113 1484; 2115 1486; 2121 1435; 2123 1479; 2124 1469; 2126 1474; 2128 286; 2132 1485; 2133 1486; 2135 297; 2137 230; 2138 233; 2141 1400; 2142 1425; 2143 1426; 2144 1436; 2145 1403; 2147 1444; 2150 1451; 2154 193; 2157 1431; 2159 123; 2160 1440; 2161 1498; 2162 109; 2163 197; 2164 1484; 2172 1416; 2173 159; 2175 1411; 2184 1416; 2185 1455; 2187 275; 2192 284; 2193 1478; 2195 276; 2197 244; 2198 212; 2200 1402; 2201 1420; 2203 1407; 2204 1428; 2205 296; 2206 281; 2211 116; 2214 249; 2216 212; 2217 206; 2219 1407; 2220 197; 2221 149; 2222 286; 2223 1408; 2224 144; 2225 1406; 2226 1407; 2228 1401; 2230 1434; 2233 116; 2234 158; 2236 1450; 2240 1419; 2241 1448; 2244 124; 2245 1480; 2246 1477; 2247 1473; 2248 116; 2250 1431; 2252 154; 2253 1497; 2254 1485; 2256 168; 2262 238; 2263 1482; 2265 1488; 2266 1484; 2267 199; 2268 219; 2270 221; 2271 210; 2273 236; 2274 248; 2277 222; 2278 247; 2279 1434; 2280 1414; 2285 1463; 2286 1430; 2287 1407; 2288 1415; 2289 1450; 2290 120; 2294 1422; 2296 1444; 2298 1438; 2300 1499; 2301 1470; 2302 226; 2303 180; 2307 1433; 2310 1413; 2311 181; 2314 179; 2318 188; 2319 273; 2320 206; 2324 134; 2326 210; 2327 198; 2328 174; 2329 1492; 2331 157; 2332 209; 2333 1453; 2336 291; 2338 275; 2339 1461; 2343 1420; 2346 250; 2347 1461; 2348 174; 2351 1403; 2352 1492; 2354 269; 2355 214; 2356 231; 2357 279; 2358 193; 2359 1438; 2361 150; 2364 1434; 2366 1484; 2368 1484; 2370 190; 2372 116; 2374 1470; 2375 180; 2376 1494; 2378 195; 2383 1497; 2385 142; 2388 1444; 2389 103; 2391 119; 2395 217; 2396 151; 2397 1485; 2398 136; 2399 130; 2400 172; 2402 1486; 2404 234; 2406 1426; 2408 1493; 2410 1446; 2411 1442; 2413 1485; 2414 1442; 2416 1437; 2418 197; 2421 231; 2425 1496; 2426 1499; 2428 1498; 2429 1403; 2431 1410; 2434 1443; 2435 274; 2436 1464; 2437 168; 2443 1492; 2444 160; 2449 213; 2453 1461; 2459 197; 2460 225; 2461 187; 2465 1488; 2466 201; 2467 129; 2468 183; 2469 1475; 2470 1422; 2472 247; 2473 1416; 2476 285; 2477 1431; 2480 191; 2487 200; 2490 174; 2491 1475; 2492 235; 2493 214; 2495 231; 2496 266; 2497 265; 2502 1437; 2503 140; 2505 1443; 2506 193; 2507 171; 2510 1497; 2511 163; 2512 1426; 2513 1465; 2515 173; 2517 1485; 2519 1437; 2520 1477; 2522 1411; 2523 1458; 2524 276; 2526 1451; 2528 1442; 2530 279; 2533 213; 2534 1422; 2536 1411; 2539 256; 2540 145; 2542 1433; 2545 1416; 2546 1404; 2547 1446; 2548 1429; 2550 203; 2553 1478; 2556 1470; 2557 247; 2560 159; 2563 100; 2564 1442; 2566 137; 2567 173; 2569 1426; 2570 1462; 2571 1400; 2575 276; 2577 1459; 2580 1433; 2582 1483; 2583 174; 2584 140; 2586 272; 2587 1445; 2590 1486; 2591 122; 2592 1421; 2593 281; 2595 187; 2597 239; 2600 1443; 2604 1494; 2605 219; 2606 149; 2607 109; 2608 1405; 2611 1484; 2612 1404; 2616 1407; 2617 295; 2618 1403; 2621 111; 2623 115; 2625 1458; 2628 180; 2629 1443; 2630 204; 2631 223; 2634 190; 2637 141; 2639 1458; 2642 114; 2643 1424; 2644 1493; 2645 1446; 2646 172; 2648 184; 2649 1460; 2651 142; 2652 1496; 2653 187; 2654 172; 2655 1439; 2656 275; 2658 104; 2659 1417; 2662 1439; 2666 205; 2672 1409; 2674 275; 2675 1499; 2676 1495; 2677 244; 2680 144; 2682 140; 2689 229; 2691 257; 2692 1468; 2694 1435; 2696 165; 2697 1400; 2698 1471; 2699 1494; 2702 104; 2703 1469; 2704 195; 2707 1406; 2710 116; 2712 1406; 2713 248; 2718 1499; 2719 134; 2720 1468; 2723 248; 2725 1430; 2727 1434; 2729 1478; 2730 106; 2732 1480; 2734 116; 2736 131; 2737 112; 2738 169; 2739 1452; 2744 1463; 2747 1478; 2748 1489; 2751 135; 2752 116; 2754 171; 2755 1459; 2758 113; 2761 1473; 2763 197; 2764 1470; 2767 1495; 2768 1499; 2774 1417; 2777 1484; 2779 231; 2780 1467; 2783 1472; 2784 150; 2785 295; 2786 1470; 2787 1498; 2788 203; 2789 1486; 2790 1477; 2791 1440; 2795 1475; 2796 1494; 2798 1490; 2799 1409; 2800 247; 2802 1493; 2804 1417; 2806 1452; 2807 268; 2818 1428; 2819 1476; 2821 240; 2823 1457; 2826 1465; 2827 264; 2828 218; 2830 299; 2833 187; 2834 1488; 2835 1476; 2837 100; 2838 285; 2843 198; 2846 1473; 2850 249; 2851 1490; 2856 1403; 2857 183; 2858 218; 2859 119; 2861 100; 2866 284; 2869 272; 2870 1444; 2873 101; 2874 1459; 2877 1484; 2880 1492; 2881 1400; 2882 1446; 2883 1497; 2884 1446; 2885 1418; 2886 202; 2888 202; 2889 1480; 2891 1415; 2892 156; 2893 1429; 2894 1429; 2895 298; 2896 187; 2898 1438; 2900 1411; 2901 1470; 2902 1499; 2906 246; 2907 1410; 2910 1480; 2911 1414; 2912 1406; 2914 219; 2915 101; 2917 256; 2921 191; 2923 1423; 2924 216; 2925 154; 2926 262; 2930 1470; 2931 213; 2937 199; 2938 1406; 2939 280; 2942 1464; 2945 1467; 2946 1488; 2948 1418; 2955 1424; 2956 234; 2958 115; 2959 156; 2961 1429; 2962 1401; 2967 121; 2968 1462; 2969 1458; 2970 125; 2971 140; 2976 1417; 2980 187; 2981 1426; 2985 1478; 2986 1406; 2988 260; 2989 285; 2990 184; 2992 1402; 2994 1479; 2996 275; 2997 228; 2998 160; 2999 1475; 3000 1460; 3002 109; 3003 277; 3004 1426; 3007 1466; 3008 1416; 3009 1461; 3011 1441; 3013 1484; 3016 1415; 3018 1489; 3020 1492; 3021 1420; 3023 259; 3024 104; 3030 1457; 3033 252; 3034 148; 3035 264; 3036 1410; 3037 1486; 3038 269; 3039 131; 3040 152; 3042 1446; 3044 1482; 3047 220; 3048 239; 3049 1496; 3050 292; 3051 1494; 3054 237; 3055 1465; 3056 1464; 3057 1459; 3058 1446; 3059 1493; 3061 1451; 3062 267; 3064 1440; 3066 1438; 3067 175; 3068 1499; 3070 1466; 3071 1406; 3074 224; 3076 1423; 3077 172; 3079 1473; 3080 1457; 3081 1457; 3082 237; 3084 1467; 3085 119; 3086 228; 3087 1424; 3088 1485; 3089 129; 3091 260; 3094 1482; 3095 211; 3096 1462; 3097 118; 3098 132; 3100 158; 3101 144; 3103 145; 3104 247; 3107 239; 3108 1496; 3110 1457; 3116 1471; 3117 1420; 3118 223; 3126 185; 3128 265; 3129 193; 3130 1444; 3133 259; 3137 203; 3141 1445; 3145 1448; 3147 224; 3148 160; 3150 248; 3151 180; 3152 1421; 3155 1442; 3164 149; 3165 138; 3167 1486; 3168 220; 3171 117; 3179 1484; 3180 1440; 3182 1452; 3183 1407; 3184 1495; 3185 1437; 3187 157; 3192 285; 3193 175; 3195 242; 3198 242; 3204 275; 3205 208; 3206 1437; 3208 1442; 3212 1428; 3218 206; 3220 1434; 3221 1413; 3222 120; 3225 245; 3226 1411; 3234 267; 3235 1448; 3238 1437; 3242 1462; 3244 1481; 3245 1495; 3248 233; 3249 203; 3251 291; 3252 1419; 3253 168; 3254 1484; 3257 128; 3258 1481; 3259 1442; 3260 1449; 3263 1473; 3265 1479; 3266 1483; 3267 1456; 3270 1423; 3275 1495; 3277 1469; 3280 211; 3287 1493; 3291 175; 3293 1472; 3294 267; 3297 107; 3299 1449; 3300 1438; 3301 1427; 3302 241; 3304 1447; 3306 1409; 3307 1435; 3308 1460; 3309 1485; 3311 1405; 3312 1458; 3315 243; 3316 256; 3318 1497; 3320 253; 3321 1455; 3323 249; 3326 133; 3327 246; 3328 1438; 3332 224; 3334 1414; 3335 1459; 3337 261; 3340 226; 3345 1425; 3346 115; 3348 296; 3349 1422; 3350 192; 3352 196; 3353 1487; 3354 145; 3355 1430; 3356 113; 3359 1406; 3363 228; 3365 162; 3366 203; 3368 1444; 3369 117; 3372 177; 3373 253; 3376 279; 3379 283; 3380 172; 3382 258; 3383 1455; 3384 1489; 3386 1451; 3387 181; 3390 241; 3391 1453; 3392 112; 3398 226; 3400 203; 3402 266; 3403 167; 3404 1454; 3405 278; 3407 218; 3409 263; 3410 1409; 3411 229; 3414 1479; 3416 1493; 3417 1434; 3419 116; 3420 1425; 3424 1420; 3426 267; 3430 1440; 3432 1470; 3438 1499; 3439 1499; 3440 1473; 3441 237; 3442 1486; 3444 128; 3445 1413; 3446 1444; 3447 1465; 3448 198; 3450 1437; 3452 1455; 3457 1416; 3458 1405; 3459 1410; 3461 1411; 3462 1447; 3463 1475; 3465 173; 3466 1466; 3468 1418; 3469 1475; 3471 148; 3472 1479; 3474 295; 3476 145; 3481 1431; 3482 207; 3486 1487; 3487 1453; 3490 194; 3498 173; 3499 228; 3500 147; 3501 1436; 3502 1420; 3504 1450; 3506 1499; 3510 123; 3512 1429; 3513 205; 3514 230; 3516 246; 3517 1466; 3518 105; 3521 190; 3525 1478; 3527 296; 3530 121; 3531 295; 3533 1425; 3535 267; 3537 135; 3540 201; 3541 185; 3543 1445; 3545 1497; 3546 241; 3547 1405; 3548 1469; 3550 1457; 3551 1446; 3553 241; 3557 294; 3561 110; 3562 1452; 3567 183; 3569 1425; 3570 1491; 3571 1410; 3572 228; 3574 236; 3576 224; 3577 1471; 3578 1447; 3579 100; 3580 125; 3581 1433; 3582 161; 3584 113; 3585 1485; 3586 1443; 3590 1467; 3591 1439; 3595 177; 3596 139; 3598 284; 3599 283;\""
param **.leaf[0].H[0].app[3].sendScript "\"2 249; 3 184; 4 200; 5 262; 7 145; 11 274; 15 239; 16 1433; 18 1400; 20 271; 23 210; 24 1418; 26 1408; 28 1428; 29 1410; 31 171; 32 1417; 34 125; 37 1446; 38 266; 39 1493; 42 105; 43 197; 44 1410; 45 1428; 46 1458; 48 1411; 49 227; 54 280; 56 294; 58 267; 60 1481; 61 1496; 62 1432; 64 1453; 68 261; 69 1497; 70 1420; 71 138; 74 1407; 78 282; 84 1499; 85 293; 88 1456; 90 237; 91 1447; 92 202; 96 118; 97 235; 99 153; 100 292; 102 1444; 104 1427; 109 294; 113 258; 114 156; 118 1412; 120 269; 124 244; 126 1429; 132 1414; 133 1462; 134 1460; 136 180; 137 176; 140 1456; 142 122; 143 180; 145 1420; 146 233; 152 1492; 153 141; 154 1450; 155 1412; 157 105; 160 278; 165 214; 166 142; 169 1453; 172 183; 173 1468; 174 1466; 176 1407; 180 194; 182 231; 183 299; 184 1438; 185 1404; 190 1496; 191 257; 195 1489; 197 1474; 199 1434; 201 1425; 205 135; 207 1413; 211 1406; 212 1434; 215 1464; 216 147; 217 1405; 222 197; 224 190; 225 1474; 229 1418; 231 156; 236 296; 239 1421; 240 1483; 241 1424; 246 1477; 247 1408; 251 283; 254 1405; 255 1431; 257 202; 259 143; 262 1426; 263 1451; 265 1469; 266 1497; 268 211; 271 1408; 272 282; 276 268; 277 1429; 280 231; 282 1462; 283 1454; 285 1437; 286 1437; 287 203; 289 1431; 290 1413; 294 147; 297 1430; 299 1454; 300 1458; 302 216; 303 191; 305 1471; 307 292; 308 130; 310 1419; 314 130; 315 209; 316 285; 320 186; 322 217; 323 1452; 324 118; 326 1444; 327 1434; 330 103; 331 1415; 332 1451; 335 199; 336 179; 337 284; 338 1488; 341 188; 342 1453; 344 1496; 347 1418; 348 297; 350 145; 351 221; 352 1452; 355 187; 356 1473; 357 147; 358 126; 359 1430; 360 111; 363 277; 365 1424; 366 1476; 367 1458; 369 181; 372 1420; 373 261; 375 185; 377 1418; 378 254; 379 237; 384 219; 385 1438; 388 1484; 391 1467; 392 1464; 393 185; 395 243; 398 215; 402 1429; 404 104; 409 1488; 413 294; 415 206; 419 172; 420 230; 421 1462; 423 1477; 424 1487; 428 204; 431 108; 433 252; 434 252; 435 1418; 437 1495; 439 272; 441 224; 442 274; 445 1458; 447 1437; 448 1491; 452 269; 460 251; 461 1494; 463 145; 466 1460; 468 269; 471 1427; 474 1471; 477 269; 479 1446; 480 175; 483 210; 485 290; 486 213; 487 234; 491 1475; 494 1481; 495 111; 497 1479; 499 1459; 500 1470; 504 1408; 505 222; 506 1444; 507 1482; 508 226; 509 110; 517 1405; 519 1480; 520 169; 523 275; 524 1493; 525 102; 527 222; 530 1445; 531 1424; 532 1488; 534 250; 535 1476; 539 153; 540 120; 541 1442; 548 1456; 551 110; 552 1490; 555 1400; 556 1443; 558 1446; 560 279; 561 1474; 562 1442; 564 119; 566 163; 568 217; 569 111; 572 178; 573 1485; 575 141; 576 1429; 577 1416; 578 213; 581 1469; 582 1436; 584 183; 587 1458; 589 1478; 590 1428; 593 247; 594 1467; 598 227; 599 218; 601 1475; 605 1454; 608 1455; 609 129; 612 1410; 616 244; 617 183; 619 293; 621 126; 622 1454; 623 1411; 627 1421; 629 243; 631 233; 632 1491; 633 255; 638 1494; 641 295; 643 1424; 644 196; 646 1426; 647 244; 648 1437; 649 150; 650 1466; 651 1498; 652 1406; 653 1498; 654 257; 655 1400; 657 163; 661 103; 662 1401; 664 1411; 667 1485; 669 1453; 672 189; 673 1459; 675 1452; 677 1487; 679 165; 680 197; 681 1489; 682 1454; 683 152; 684 1468; 688 185; 689 293; 690 1435; 692 150; 694 240; 697 1487; 698 138; 699 189; 706 1412; 707 220; 711 1465; 712 116; 716 1494; 718 1438; 719 276; 725 1422; 726 107; 727 1442; 730 131; 732 1450; 734 1473; 736 235; 737 242; 738 160; 739 1487; 740 1462; 741 146; 742 1434; 743 279; 744 278; 747 250; 750 223; 751 1482; 753 233; 754 1447; 756 149; 758 114; 759 135; 761 120; 762 287; 763 1467; 765 262; 768 201; 769 187; 773 192; 775 170; 777 1425; 783 1467; 785 113; 788 148; 790 1481; 792 1485; 797 208; 799 1403; 800 214; 802 1446; 804 234; 805 1476; 806 153; 807 186; 810 197; 811 191; 812 1436; 813 118; 818 1499; 821 1439; 822 168; 824 255; 826 231; 827 1408; 829 138; 830 212; 834 1470; 835 1465; 838 245; 840 227; 845 1455; 847 1401; 849 298; 851 1409; 854 1484; 855 1426; 857 1432; 858 1456; 859 1424; 860 1433; 861 1457; 863 1439; 865 1409; 866 135; 868 1444; 869 1420; 870 1459; 874 164; 877 259; 881 1431; 882 241; 884 123; 885 1459; 887 1454; 888 1491; 890 285; 891 1412; 892 157; 896 1493; 899 249; 900 252; 901 1431; 902 289; 903 1491; 910 140; 911 206; 913 1477; 914 222; 915 1445; 916 1410; 917 1415; 918 108; 919 184; 924 1426; 925 1414; 926 1413; 927 1414; 928 269; 929 289; 933 1411; 935 1466; 936 187; 937 1405; 939 226; 943 1413; 946 1469; 947 149; 952 1445; 954 1432; 956 178; 960 1465; 962 278; 965 192; 972 154; 974 217; 978 179; 979 1417; 980 178; 982 206; 985 1486; 988 150; 989 294; 990 163; 992 1443; 993 100; 995 1414; 997 1439; 998 158; 999 275; 1000 1404; 1002 286; 1003 240; 1006 101; 1007 163; 1008 1409; 1011 247; 1012 1410; 1016 119; 1017 192; 1023 243; 1024 160; 1025 262; 1028 126; 1033 1448; 1035 1427; 1036 1488; 1037 200; 1039 182; 1040 132; 1041 1419; 1043 1473; 1044 209; 1047 1404; 1050 1413; 1051 281; 1055 201; 1057 1485; 1058 1443; 1059 1432; 1061 131; 1062 294; 1067 122; 1070 124; 1074 292; 1075 1470; 1077 296; 1078 1437; 1079 240; 1082 1432; 1088 124; 1089 246; 1090 252; 1095 1407; 1098 1473; 1100 244; 1101 240; 1104 1406; 1108 1448; 1112 1468; 1115 1467; 1117 1468; 1118 1412; 1119 226; 1122 225; 1125 266; 1126 121; 1128 1403; 1130 276; 1131 1450; 1133 1464; 1134 1418; 1135 1479; 1137 137; 1142 176; 1143 1448; 1146 1414; 1150 1467; 1152 1485; 1154 289; 1156 219; 1159 1451; 1160 272; 1162 1466; 1163 122; 1165 253; 1166 1474; 1169 145; 1172 1414; 1174 1481; 1175 170; 1176 139; 1177 163; 1183 1469; 1185 1444; 1189 254; 1190 1453; 1191 227; 1193 1427; 1194 1436; 1196 147; 1198 1445; 1199 1498; 1203 225; 1204 101; 1205 100; 1209 131; 1210 295; 1212 1408; 1216 1455; 1221 1462; 1225 169; 1226 174; 1233 1490; 1234 141; 1235 1447; 1236 1471; 1238 1471; 1240 1415; 1241 1453; 1245 293; 1247 1491; 1249 113; 1250 129; 1251 1453; 1252 111; 1253 142; 1254 215; 1256 1442; 1258 1463; 1261 1414; 1262 1429; 1263 1422; 1267 1427; 1268 1450; 1274 1436; 1275 245; 1276 1469; 1277 198; 1278 105; 1280 257; 1282 1444; 1286 184; 1288 104; 1290 276; 1291 1421; 1293 245; 1297 163; 1298 1486; 1299 1456; 1300 1431; 1301 154; 1303 109; 1307 1460; 1308 1403; 1312 189; 1317 147; 1319 1413; 1323 1426; 1324 1419; 1330 1456; 1333 245; 1334 1407; 1337 263; 1338 1438; 1340 1403; 1342 1419; 1345 1497; 1346 221; 1348 1493; 1349 266; 1350 101; 1352 107; 1354 189; 1355 1426; 1357 1460; 1361 176; 1362 1425; 1366 1433; 1367 160; 1368 199; 1370 1406; 1371 119; 1373 195; 1378 1433; 1382 292; 1384 133; 1387 269; 1388 166; 1390 142; 1392 1432; 1395 1461; 1397 1495; 1400 104; 1403 170; 1404 1437; 1406 110; 1407 291; 1411 272; 1412 1477; 1414 262; 1416 178; 1417 285; 1421 1468; 1424 202; 1426 239; 1429 191; 1432 1439; 1434 160; 1435 134; 1436 1464; 1439 160; 1445 129; 1446 1447; 1448 186; 1451 1494; 1452 268; 1453 1416; 1454 202; 1455 247; 1457 176; 1460 1488; 1461 191; 1463 1449; 1464 143; 1467 158; 1468 298; 1469 1403; 1470 1420; 1471 1486; 1473 1483; 1476 233; 1477 241; 1478 117; 1479 158; 1481 1446; 1486 245; 1488 295; 1489 1400; 1491 162; 1494 1403; 1495 118; 1497 1457; 1498 1443; 1499 1453; 1500 1451; 1502 227; 1504 1442; 1505 245; 1506 1447; 1507 1440; 1509 126; 1511 1408; 1512 139; 1516 161; 1517 1472; 1518 256; 1519 120; 1527 1429; 1528 282; 1530 252; 1531 1412; 1532 1496; 1535 119; 1540 135; 1542 1425; 1544 1485; 1547 206; 1551 214; 1554 186; 1556 1427; 1558 207; 1559 1451; 1560 252; 1561 241; 1562 1456; 1563 1402; 1564 278; 1566 240; 1571 196; 1572 1405; 1573 1471; 1574 292; 1575 156; 1576 187; 1577 119; 1579 1414; 1580 1493; 1581 1445; 1583 1403; 1584 269; 1586 1469; 1588 1419; 1592 1412; 1596 101; 1597 217; 1599 216; 1600 136; 1603 218; 1605 129; 1610 277; 1613 1464; 1614 1464; 1617 1432; 1619 219; 1622 1436; 1623 250; 1624 1483; 1625 1495; 1626 1420; 1628 1483; 1630 140; 1640 1491; 1642 1457; 1644 1419; 1646 1448; 1647 1448; 1651 131; 1653 138; 1655 116; 1657 177; 1658 1410; 1660 179; 1664 1447; 1668 1457; 1672 239; 1675 1439; 1679 130; 1680 1474; 1681 1457; 1683 1469; 1686 115; 1687 1404; 1688 106; 1689 162; 1693 195; 1694 1411; 1696 1426; 1701 184; 1703 232; 1707 175; 1709 1478; 1712 112; 1714 1409; 1715 1459; 1716 143; 1718 1447; 1719 1484; 1725 1495; 1726 1446; 1727 1434; 1729 1404; 1732 207; 1734 225; 1736 244; 1737 1434; 1740 157; 1741 1467; 1743 1422; 1750 1457; 1751 1448; 1755 1467; 1756 197; 1758 115; 1760 184; 1764 1480; 1769 136; 1771 178; 1773 289; 1775 113; 1776 1452; 1777 162; 1778 263; 1779 214; 1781 249; 1783 157; 1787 128; 1788 1401; 1791 1420; 1792 264; 1793 157; 1796 166; 1802 158; 1803 1465; 1804 1442; 1805 245; 1807 1445; 1808 1476; 1810 1446; 1812 1450; 1813 1451; 1815 258; 1816 1434; 1818 123; 1822 1439; 1824 1448; 1825 1432; 1826 268; 1827 1427; 1829 297; 1830 1460; 1831 294; 1837 1410; 1838 1424; 1839 164; 1840 144; 1842 1431; 1843 1448; 1845 1440; 1847 1418; 1848 102; 1849 1436; 1851 1470; 1852 1463; 1853 1484; 1854 214; 1855 168; 1859 1486; 1866 1443; 1870 1407; 1871 1436; 1872 1491; 1873 1497; 1874 257; 1875 1491; 1877 122; 1878 102; 1881 102; 1883 192; 1885 255; 1886 1497; 1888 226; 1890 150; 1891 1486; 1892 275; 1893 145; 1897 293; 1899 1438; 1900 1464; 1903 247; 1904 218; 1908 1457; 1911 1475; 1912 297; 1913 241; 1914 291; 1916 150; 1919 1475; 1920 1401; 1922 184; 1927 1462; 1929 1493; 1932 119; 1934 223; 1936 234; 1938 219; 1946 213; 1947 173; 1948 1471; 1955 1444; 1956 1473; 1959 277; 1960 218; 1961 189; 1962 1499; 1964 1401; 1966 1461; 1969 1492; 1972 205; 1976 203; 1978 1472; 1979 1485; 1980 226; 1981 1411; 1982 1416; 1983 1449; 1984 1479; 1985 198; 1988 1480; 1990 1402; 1992 1431; 1993 1496; 1994 190; 1996 205; 1997 1439; 1998 1433; 2001 234; 2002 103; 2003 1456; 2005 1441; 2007 1457; 2013 1468; 2014 1428; 2021 1444; 2023 1445; 2027 154; 2029 275; 2031 234; 2032 219; 2035 110; 2038 276; 2039 201; 2041 1492; 2043 1428; 2044 244; 2046 271; 2047 1427; 2049 1438; 2052 1461; 2054 1442; 2055 1402; 2058 274; 2059 1468; 2060 147; 2061 1456; 2062 1425; 2063 1413; 2067 215; 2071 1426; 2072 1445; 2073 182; 2074 219; 2075 1417; 2076 1452; 2077 176; 2080 295; 2083 1469; 2086 204; 2087 1481; 2088 1408; 2089 242; 2091 232; 2094 1487; 2095 253; 2096 102; 2097 1494; 2098 136; 2099 1416; 2100 1491; 2103 253; 2104 224; 2106 1430; 2107 253; 2108 111; 2109 1457; 2110 1453; 2112 1442; 2113 150; 2117 111; 2118 214; 2120 1438; 2121 1479; 2126 149; 2128 1479; 2131 1483; 2132 1427; 2135 191; 2136 1452; 2138 1456; 2140 1473; 2141 227; 2142 272; 2149 1479; 2150 160; 2152 239; 2153 1433; 2157 211; 2158 236; 2159 1422; 2160 1432; 2161 237; 2162 1425; 2163 228; 2167 288; 2170 1461; 2174 1457; 2175 168; 2176 120; 2179 196; 2183 1481; 2184 236; 2186 167; 2189 273; 2191 1439; 2193 138; 2194 146; 2195 1421; 2196 1422; 2198 1417; 2200 1415; 2201 1493; 2208 285; 2209 245; 2210 204; 2213 1428; 2217 1416; 2218 1469; 2219 192; 2222 132; 2225 1423; 2227 1482; 2230 1422; 2231 269; 2232 155; 2236 1481; 2237 129; 2239 192; 2240 1443; 2242 158; 2243 1496; 2247 1487; 2254 219; 2256 1429; 2257 1415; 2262 1436; 2263 266; 2270 278; 2272 1488; 2273 1497; 2279 1466; 2281 136; 2283 231; 2286 250; 2287 121; 2292 1468; 2294 226; 2296 1434; 2297 1462; 2298 1468; 2301 118; 2302 1491; 2304 233; 2305 277; 2306 115; 2309 1439; 2310 200; 2311 286; 2312 129; 2317 285; 2319 1473; 2320 115; 2321 151; 2322 237; 2323 125; 2324 1484; 2326 280; 2327 238; 2329 174; 2333 1476; 2334 1409; 2335 1478; 2336 1447; 2339 117; 2343 254; 2344 145; 2347 140; 2349 212; 2350 235; 2351 1473; 2353 1499; 2354 1435; 2356 1447; 2361 1443; 2362 1410; 2364 220; 2365 1466; 2367 1441; 2368 299; 2369 1450; 2370 1442; 2371 1486; 2372 1443; 2373 248; 2375 157; 2377 142; 2379 1460; 2385 1466; 2386 167; 2389 173; 2390 1471; 2397 221; 2398 224; 2401 118; 2402 136; 2404 209; 2406 214; 2407 1408; 2408 133; 2410 1491; 2412 246; 2415 283; 2416 169; 2418 1443; 2420 1457; 2422 1443; 2424 152; 2427 1477; 2428 232; 2429 151; 2430 1409; 2432 177; 2434 280; 2436 1441; 2438 1433; 2439 225; 2440 163; 2441 1490; 2443 1446; 2447 169; 2448 1498; 2449 1452; 2451 125; 2453 208; 2456 134; 2457 1484; 2460 280; 2465 156; 2467 175; 2472 289; 2473 1484; 2474 174; 2475 105; 2476 1410; 2477 1429; 2481 192; 2482 124; 2485 1424; 2492 112; 2493 104; 2498 264; 2500 216; 2501 100; 2503 243; 2507 226; 2509 1473; 2510 1446; 2515 1473; 2517 1422; 2519 1444; 2520 1468; 2522 210; 2523 252; 2524 165; 2525 1454; 2529 281; 2530 279; 2531 105; 2532 1423; 2533 185; 2534 207; 2536 150; 2537 298; 2539 1455; 2540 258; 2542 1433; 2544 225; 2545 122; 2549 191; 2552 1429; 2553 155; 2554 233; 2558 228; 2559 291; 2560 248; 2562 1456; 2566 178; 2568 1492; 2571 134; 2572 1447; 2573 1412; 2574 174; 2575 102; 2580 296; 2583 130; 2584 1498; 2585 1486; 2586 1426; 2588 217; 2590 134; 2592 249; 2593 143; 2594 1461; 2595 185; 2596 1400; 2598 1439; 2601 1407; 2603 143; 2606 280; 2607 295; 2609 1465; 2610 1465; 2611 1439; 2613 101; 2614 296; 2618 147; 2620 1437; 2622 270; 2624 172; 2627 209; 2628 126; 2629 231; 2632 1436; 2633 221; 2634 1480; 2639 169; 2640 1467; 2641 151; 2643 1456; 2644 104; 2649 188; 2650 230; 2652 277; 2655 241; 2656 1455; 2659 209; 2660 1424; 2661 1473; 2663 1419; 2664 1431; 2665 170; 2666 277; 2667 271; 2668 1472; 2671 1440; 2672 290; 2673 1417; 2674 259; 2675 233; 2679 265; 2681 137; 2686 106; 2687 1495; 2689 293; 2691 1488; 2694 1435; 2695 284; 2696 1447; 2697 1474; 2698 1496; 2700 1464; 2701 1461; 2702 238; 2703 1458; 2707 288; 2712 185; 2713 254; 2714 246; 2716 106; 2717 1496; 2719 1476; 2721 230; 2723 1449; 2725 1412; 2727 1450; 2728 259; 2731 182; 2733 1448; 2734 255; 2736 1400; 2737 1426; 2739 1437; 2740 293; 2741 1476; 2743 242; 2744 183; 2748 177; 2750 1487; 2751 1453; 2752 1435; 2753 115; 2754 185; 2755 175; 2757 1472; 2759 1486; 2761 1411; 2762 114; 2765 1447; 2766 223; 2770 1458; 2775 146; 2776 170; 2778 1421; 2781 1469; 2782 278; 2783 156; 2787 171; 2793 218; 2794 1424; 2797 135; 2798 161; 2801 107; 2802 122; 2803 1414; 2804 266; 2806 1409; 2807 173; 2808 216; 2809 144; 2811 1457; 2812 191; 2816 113; 2820 236; 2821 196; 2822 108; 2823 1459; 2824 221; 2828 1473; 2832 1447; 2834 1425; 2837 1405; 2839 1400; 2840 115; 2841 126; 2842 241; 2844 1477; 2848 1413; 2849 1488; 2852 1410; 2853 1458; 2854 1437; 2855 271; 2856 1469; 2858 258; 2860 1402; 2861 293; 2862 185; 2863 288; 2864 1440; 2866 299; 2867 145; 2872 136; 2873 293; 2879 178; 2881 1476; 2882 139; 2884 1404; 2888 1484; 2891 227; 2894 1472; 2898 1432; 2899 1436; 2904 176; 2905 232; 2911 1433; 2912 294; 2913 1402; 2917 1403; 2918 264; 2921 119; 2927 1453; 2928 202; 2930 1455; 2933 1411; 2935 275; 2937 297; 2938 117; 2939 1477; 2940 266; 2941 1490; 2942 1442; 2946 190; 2948 1496; 2949 1455; 2950 1495; 2951 199; 2959 1408; 2960 295; 2961 205; 2963 1428; 2964 292; 2965 236; 2966 1410; 2968 224; 2977 1434; 2979 251; 2980 1445; 2981 1414; 2982 281; 2983 208; 2985 272; 2986 182; 2987 128; 2988 252; 2990 178; 2991 1494; 2992 1495; 2993 1404; 2995 1465; 2996 1417; 2997 1471; 2999 280; 3006 1477; 3007 1495; 3010 1491; 3011 144; 3014 178; 3016 1438; 3018 115; 3019 160; 3021 1451; 3022 1458; 3027 286; 3028 1496; 3029 1489; 3032 1459; 3034 1442; 3035 1475; 3036 1419; 3039 252; 3040 1417; 3044 277; 3047 295; 3048 255; 3050 132; 3052 285; 3054 1472; 3056 1495; 3057 1470; 3061 1424; 3062 1472; 3063 1481; 3065 189; 3067 243; 3068 1438; 3069 247; 3070 247; 3073 243; 3076 1473; 3079 199; 3081 257; 3083 108; 3084 1463; 3085 186; 3086 1415; 3087 213; 3088 287; 3090 1472; 3092 1493; 3093 1475; 3094 1488; 3102 222; 3104 1400; 3105 234; 3106 1425; 3109 175; 3111 137; 3112 167; 3113 147; 3114 1453; 3115 298; 3116 140; 3120 138; 3123 1478; 3129 1456; 3131 189; 3132 213; 3137 185; 3140 1437; 3141 1448; 3144 183; 3146 1481; 3149 1486; 3150 1455; 3151 1479; 3155 272; 3161 293; 3164 175; 3166 1463; 3171 1457; 3172 265; 3173 211; 3175 269; 3180 235; 3185 120; 3186 266; 3189 1487; 3193 1444; 3195 178; 3196 1434; 3197 1476; 3198 264; 3199 1406; 3200 262; 3201 1473; 3202 265; 3205 1473; 3206 248; 3209 143; 3210 247; 3217 1449; 3218 266; 3221 1470; 3224 1461; 3225 1413; 3226 145; 3231 1496; 3234 278; 3236 1472; 3237 1493; 3238 116; 3239 206; 3240 151; 3241 1489; 3242 273; 3244 1442; 3245 1423; 3246 1403; 3248 1499; 3251 1478; 3254 200; 3256 203; 3258 1422; 3259 1497; 3263 116; 3264 1469; 3265 1484; 3266 1479; 3270 123; 3276 258; 3277 174; 3279 154; 3284 1490; 3285 188; 3288 145; 3290 1455; 3292 1434; 3293 162; 3295 222; 3299 1423; 3301 1484; 3305 1486; 3307 1482; 3309 1432; 3310 145; 3312 174; 3314 1421; 3316 246; 3317 1466; 3318 114; 3321 1421; 3322 1444; 3324 1422; 3327 1463; 3328 299; 3329 1405; 3330 1417; 3333 165; 3334 1479; 3337 215; 3339 270; 3340 1495; 3344 1443; 3347 1469; 3350 1422; 3351 115; 3352 1426; 3354 141; 3357 278; 3358 1401; 3361 1459; 3363 278; 3364 1434; 3365 288; 3367 130; 3368 1416; 3371 1428; 3372 1499; 3374 298; 3378 1435; 3381 269; 3383 1448; 3384 1479; 3387 249; 3389 262; 3391 1494; 3393 145; 3395 1496; 3396 1418; 3398 275; 3399 159; 3400 288; 3402 1456; 3405 1493; 3406 1479; 3407 1441; 3408 132; 3412 140; 3416 1440; 3417 1487; 3418 234; 3419 140; 3422 1463; 3423 1475; 3424 1401; 3425 1435; 3428 1436; 3431 1434; 3432 1469; 3433 1410; 3435 1431; 3441 247; 3444 1401; 3451 1497; 3454 119; 3455 261; 3456 250; 3458 194; 3462 1457; 3465 153; 3466 146; 3468 1459; 3469 1469; 3470 1447; 3471 1455; 3474 1484; 3476 104; 3477 1466; 3478 1418; 3479 214; 3480 1405; 3481 288; 3484 276; 3485 189; 3488 114; 3489 1464; 3490 150; 3491 1438; 3493 126; 3495 190; 3497 1452; 3498 101; 3499 103; 3502 235; 3507 1413; 3510 170; 3511 1425; 3514 1488; 3515 160; 3516 1406; 3517 130; 3519 223; 3520 226; 3521 1470; 3522 1438; 3526 193; 3528 1453; 3534 177; 3535 176; 3536 1438; 3540 214; 3543 1441; 3553 1408; 3554 146; 3555 1481; 3556 1441; 3557 1417; 3558 216; 3562 1415; 3567 233; 3570 143; 3573 1479; 3575 159; 3576 1466; 3577 1448; 3581 214; 3583 199; 3586 191; 3589 252; 3590 114; 3594 244; 3596 192; 3597 1413; 3598 1416;\""
[...]
1529	2761	1.00004916	64
1529	3203	1.00005588	64
1529	3999	1.0000675	64
1530	2297	1.00004067	64
1530	2778	1.00004921	64
1530	3222	1.00005593	64
1530	4004	1.00006755	64
1531	2297	1.00004067	64
1531	2778	1.00004921	64
1531	3222	1.00005593	64
1531	4004	1.00006755	64
1532	2298	1.00004067	46
1532	2800	1.00004921	46
1532	3247	1.00005593	46
1532	4010	1.00006755	46
1533	2323	1.00004244	64
1533	2752	1.00004916	64
1533	3199	1.00005588	64
1533	3673	1.0000626	64
1533	4116	1.00006932	64
1533	4503	1.00007604	64
1533	4912	1.00008276	64
1534	2324	1.00004244	64
1534	2754	1.00004916	64
1534	3204	1.00005588	64
1534	3676	1.0000626	64
1534	4118	1.00006932	64
1534	4919	1.00008276	64
1535	2325	1.00004244	64
1535	2759	1.00004916	64
1535	3207	1.00005588	64
1535	3678	1.0000626	64
1535	4120	1.00006932	64
1536	2334	1.00004249	64
1536	2769	1.00004921	64
1536	3218	1.00005593	64
1536	3689	1.00006265	64
1536	4130	1.00006937	64
1536	4515	1.00007609	64
1536	4923	1.00008281	64
1537	2334	1.00004249	64
1537	2769	1.00004921	64
1537	3218	1.00005593	64
1537	3689	1.00006265	64
1537	4130	1.00006937	64
1537	4515	1.00007609	64
1537	4923	1.00008281	64
1538	2335	1.00004249	64
1538	2771	1.00004921	64
1538	3223	1.00005593	64
1538	3692	1.00006265	64
1538	4132	1.00006937	64
1538	4930	1.00008281	64
1539	2335	1.00004249	64
1539	2771	1.00004921	64
1539	3223	1.00005593	64
1539	3692	1.00006265	64
1539	4132	1.00006937	64
1539	4930	1.00008281	64
1540	2336	1.00004249	64
1540	2776	1.00004921	64
1540	3226	1.00005593	64
1540	3694	1.00006265	64
1540	4134	1.00006937	64
1541	2336	1.00004249	64
1541	2776	1.00004921	64
1541	3226	1.00005593	64
1541	3694	1.00006265	64
1541	4134	1.00006937	64
1542	2347	1.00004249	46
1542	2791	1.00004921	46
1542	3243	1.00005593	46
1542	3714	1.00006265	46
1542	4154	1.00006937	46
1542	4533	1.00007609	46
1542	4941	1.00008281	46
1543	2348	1.00004249	46
1543	2793	1.00004921	46
1543	3248	1.00005593	46
1543	3717	1.00006265	46
1543	4156	1.00006937	46
1543	4948	1.00008281	46
1544	2349	1.00004249	46
1544	2798	1.00004921	46
1544	3251	1.00005593	46
1544	3719	1.00006265	46
1544	4158	1.00006937	46
1545	2396	1.00004335	64
1545	3151	1.00005497	64
1545	4035	1.00006841	64
1546	2400	1.00004335	64
1546	3152	1.00005497	64
1547	2401	1.00004335	64
1547	2870	1.00005007	64
1547	3597	1.00006169	64
1548	2421	1.0000434	64
1548	3157	1.00005502	64
1548	4045	1.00006846	64
1549	2421	1.0000434	64
1549	3157	1.00005502	64
1549	4045	1.00006846	64
1550	2425	1.0000434	64
1550	3158	1.00005502	64
1551	2425	1.0000434	64
1551	3158	1.00005502	64
1552	2426	1.0000434	64
1552	2891	1.00005012	64
1552	3606	1.00006174	64
1553	2426	1.0000434	64
1553	2891	1.00005012	64
1553	3606	1.00006174	64
1554	2457	1.0000434	46
1554	3166	1.00005502	46
1554	4060	1.00006846	46
1555	2461	1.0000434	46
1555	3167	1.00005502	46
1556	2462	1.0000434	46
1556	2929	1.00005012	46
1556	3619	1.00006174	46
1557	2469	1.0000434	28
1558	2472	1.0000434	28
1559	2494	1.0000434	28
1559	2507	1.0000434	44
1559	2508	1.0000434	28
1559	2960	1.00005012	44
1559	3414	1.00005684	44
1559	3868	1.00006356	44
1560	2495	1.0000434	257505
1560	2495	1.0000434	257505
1561	2495	1.0000434	7504
1562	2495	1.0000434	0
1563	2495	1.0000434	7504
1564	2495	1.0000434	250001
1565	2497	1.0000434	28
1565	2512	1.0000434	44
1565	2513	1.0000434	28
1565	4297	1.00007028	44
1565	4657	1.000077	44
1566	2504	1.0000434	257505
1566	2504	1.0000434	257505
1567	2504	1.0000434	7504
1568	2504	1.0000434	0
1569	2504	1.0000434	7504
1570	2504	1.0000434	250001
1571	2509	1.0000434	250000
1571	3636	1.00006174	250000
1571	4077	1.00006846	250000
1571	4484	1.00007518	250000
1571	4876	1.0000819	250000
1572	2509	1.0000434	0
1572	3636	1.00006174	0
1572	4077	1.00006846	0
1572	4484	1.00007518	0
1572	4876	1.0000819	0
1573	2509	1.0000434	257505
1573	2509	1.0000434	257505
1574	2509	1.0000434	7504
1575	2509	1.0000434	0
1576	2509	1.0000434	7504
1577	2509	1.0000434	250001
1578	2510	1.0000434	250000
1578	4485	1.00007518	250000
1579	2510	1.0000434	0
1579	4485	1.00007518	0
1580	2510	1.0000434	257505
1580	2510	1.0000434	257505
1581	2510	1.0000434	7504
1581	4083	1.00006846	7504
1582	2510	1.0000434	0
1583	2510	1.0000434	7504
1584	2510	1.0000434	250001
1585	2511	1.0000434	257505
1585	2511	1.0000434	257505
1586	2511	1.0000434	7504
1587	2511	1.0000434	0
1588	2511	1.0000434	7504
1589	2511	1.0000434	250001
1590	2516	1.0000434	257505
1590	2516	1.0000434	257505
1591	2516	1.0000434	7504
1592	2516	1.0000434	0
1593	2516	1.0000434	7504
1594	2516	1.0000434	250001
1595	2518	1.0000434	250000
1595	4668	1.000077	250000
1596	2518	1.0000434	0
1596	4668	1.000077	0
1597	2518	1.0000434	257505
1597	2518	1.0000434	257505
1598	2518	1.0000434	7504
1599	2518	1.0000434	0
1600	2518	1.0000434	7504
1601	2518	1.0000434	250001
1602	2519	1.0000434	257505
1602	2519	1.0000434	257505
1603	2519	1.0000434	7504
1604	2519	1.0000434	0
1605	2519	1.0000434	7504
1606	2519	1.0000434	250001
1607	2520	1.0000434	257505
1607	2520	1.0000434	257505
1608	2520	1.0000434	7504
1609	2520	1.0000434	0
1610	2520	1.0000434	7504
1611	2520	1.0000434	250001
1612	2522	1.0000434	46
1612	2535	1.0000434	62
1612	2536	1.0000434	46
1612	2979	1.00005012	62
1612	3432	1.00005684	62
1612	3885	1.00006356	62
1613	2522	1.0000434	64
1613	2535	1.0000434	64
1613	2536	1.0000434	64
1613	2979	1.00005012	64
1613	3432	1.00005684	64
1613	3885	1.00006356	64
1614	2522	1.0000434	1
1614	2522	1.0000434	0
1614	2535	1.0000434	1
1614	2536	1.0000434	2
1614	2906	1.00005012	1
1614	2979	1.00005012	2
1614	3354	1.00005684	1
1614	3432	1.00005684	2
1614	3815	1.00006356	1
1614	3885	1.00006356	2
1614	4249	1.00007028	1
1614	4612	1.000077	0
1615	2522	1.0000434	64
1615	2906	1.00005012	64
1615	3354	1.00005684	64
1615	3815	1.00006356	64
1615	4249	1.00007028	64
1615	4612	1.000077	64
1616	2522	1.0000434	0
1616	2906	1.00005012	6.72e-006
1616	3354	1.00005684	1.344e-005
1616	3815	1.00006356	1.344e-005
1616	4249	1.00007028	1.344e-005
1616	4612	1.000077	1.344e-005
1617	2525	1.0000434	46
1617	2540	1.0000434	62
1617	2541	1.0000434	46
1617	4314	1.00007028	62
1617	4673	1.000077	62
1618	2525	1.0000434	64
1618	2540	1.0000434	64
1618	2541	1.0000434	64
1618	4314	1.00007028	64
1618	4673	1.000077	64
1619	2525	1.0000434	1
1619	2525	1.0000434	0
1619	2540	1.0000434	1
1619	2541	1.0000434	2
1619	2908	1.00005012	1
1619	3355	1.00005684	0
1619	4314	1.00007028	1
1619	4314	1.00007028	0
1619	4673	1.000077	1
1619	4673	1.000077	0
1620	2525	1.0000434	64
1620	2908	1.00005012	64
1620	3355	1.00005684	64
1620	4314	1.00007028	64
1620	4673	1.000077	64
1621	2525	1.0000434	0
1621	2908	1.00005012	6.72e-006
1621	3355	1.00005684	1.344e-005
1621	4314	1.00007028	0
1621	4673	1.000077	0
1622	2733	1.0000483	250000
1622	3176	1.00005502	250000
1622	4785	1.00008008	250000
1623	2733	1.0000483	0
1623	3176	1.00005502	0
1623	4785	1.00008008	0
1624	2733	1.0000483	257505
1624	2733	1.0000483	257505
1625	2733	1.0000483	7504
1626	2733	1.0000483	0
1627	2733	1.0000483	7504
1628	2733	1.0000483	250001
1629	2734	1.0000483	257505
1629	2734	1.0000483	257505
1630	2734	1.0000483	7504
1631	2734	1.0000483	0
1632	2734	1.0000483	7504
1633	2734	1.0000483	250001
1634	2735	1.0000483	257505
1634	2735	1.0000483	257505
1635	2735	1.0000483	7504
1636	2735	1.0000483	0
1637	2735	1.0000483	7504
1638	2735	1.0000483	250001
1639	2753	1.00004916	64
1639	3200	1.00005588	64
1639	3674	1.0000626	64
1639	4117	1.00006932	64
1639	4504	1.00007604	64
1639	4913	1.00008276	64
1640	2755	1.00004916	64
1640	3201	1.00005588	64
1640	3675	1.0000626	64
1640	4509	1.00007604	64
1640	4918	1.00008276	64
1641	2770	1.00004921	64
1641	3219	1.00005593	64
1641	3690	1.00006265	64
1641	4131	1.00006937	64
1641	4516	1.00007609	64
1641	4924	1.00008281	64
1642	2770	1.00004921	64
1642	3219	1.00005593	64
1642	3690	1.00006265	64
1642	4131	1.00006937	64
1642	4516	1.00007609	64
1642	4924	1.00008281	64
1643	2772	1.00004921	64
1643	3220	1.00005593	64
1643	3691	1.00006265	64
1643	4521	1.00007609	64
1643	4929	1.00008281	64
1644	2772	1.00004921	64
1644	3220	1.00005593	64
1644	3691	1.00006265	64
1644	4521	1.00007609	64
1644	4929	1.00008281	64
1645	2792	1.00004921	46
1645	3244	1.00005593	46
1645	3715	1.00006265	46
1645	4155	1.00006937	46
1645	4534	1.00007609	46
1645	4942	1.00008281	46
1646	2794	1.00004921	46
1646	3245	1.00005593	46
1646	3716	1.00006265	46
1646	4539	1.00007609	46
1646	4947	1.00008281	46
1647	2968	1.00005012	257505
1647	2968	1.00005012	257505
1648	2968	1.00005012	7504
1649	2968	1.00005012	0
1650	2968	1.00005012	7504
1651	2968	1.00005012	250001
1652	2971	1.00005012	257505
1652	2971	1.00005012	257505
1653	2971	1.00005012	7504
1654	2971	1.00005012	0
1655	2971	1.00005012	7504
1656	2971	1.00005012	250001
1657	2972	1.00005012	250005
1658	2972	1.00005012	250001
1659	2972	1.00005012	7504
1660	2973	1.00005012	250007
1661	2973	1.00005012	250001
1662	2973	1.00005012	7504
1663	2974	1.00005012	250005
1664	2974	1.00005012	250001
1665	2974	1.00005012	7504
1666	2975	1.00005012	250007
1667	2975	1.00005012	250001
1668	2975	1.00005012	7504
1669	2976	1.00005012	250005
1670	2976	1.00005012	250001
1671	2976	1.00005012	7504
1672	2977	1.00005012	250007
1673	2977	1.00005012	250001
1674	2977	1.00005012	7504
1675	2978	1.00005012	250005
1676	2978	1.00005012	250001
1677	2978	1.00005012	7504
1678	3010	1.00005012	197
1679	3013	1.00005012	1428
1680	3016	1.00005012	244
1681	3022	1.00005012	250001
1682	3022	1.00005012	197
1683	3025	1.00005012	250001
1684	3025	1.00005012	536
1685	3028	1.00005012	250001
1686	3028	1.00005012	244
1687	3174	1.00005502	250005
1688	3174	1.00005502	250001
1689	3174	1.00005502	7504
1690	3175	1.00005502	257505
1690	3175	1.00005502	257505
1691	3175	1.00005502	7504
1692	3175	1.00005502	0
1693	3175	1.00005502	7504
1694	3175	1.00005502	250001
1695	3176	1.00005502	257505
1695	3176	1.00005502	257505
1696	3176	1.00005502	7504
1697	3176	1.00005502	0
1698	3176	1.00005502	7504
1699	3176	1.00005502	250001
1700	3177	1.00005502	257505
1700	3177	1.00005502	257505
1701	3177	1.00005502	7504
1702	3177	1.00005502	0
1703	3177	1.00005502	7504
1704	3177	1.00005502	250001
1705	3184	1.00005502	189
1706	3189	1.00005502	250001
1707	3189	1.00005502	189
1708	3412	1.00005684	257505
1708	3412	1.00005684	257505
1709	3412	1.00005684	7504
1710	3412	1.00005684	0
1711	3412	1.00005684	7504
1712	3412	1.00005684	250001
1713	3415	1.00005684	250009
1714	3415	1.00005684	250001
1715	3415	1.00005684	7504
1716	3416	1.00005684	250009
1717	3416	1.00005684	250001
1718	3416	1.00005684	7504
1719	3417	1.00005684	250010
1720	3417	1.00005684	250001
1721	3417	1.00005684	7504
1722	3418	1.00005684	257505
1722	3418	1.00005684	257505
1723	3418	1.00005684	7504
1724	3418	1.00005684	0
1725	3418	1.00005684	7504
1726	3418	1.00005684	250001
1727	3419	1.00005684	250005
1728	3419	1.00005684	250001
1729	3419	1.00005684	7504
1730	3420	1.00005684	250000
1730	4666	1.000077	250000
1731	3420	1.00005684	0
1731	4666	1.000077	0
1732	3420	1.00005684	257505
1732	3420	1.00005684	257505
1733	3420	1.00005684	7504
1734	3420	1.00005684	0
1735	3420	1.00005684	7504
1736	3420	1.00005684	250001
1737	3421	1.00005684	250005
1738	3421	1.00005684	250001
1739	3421	1.00005684	7504
1740	3422	1.00005684	250007
1741	3422	1.00005684	250001
1742	3422	1.00005684	7504
1743	3450	1.00005684	1436
1744	3452	1.00005684	203
1745	3461	1.00005684	250001
1746	3461	1.00005684	536
1747	3463	1.00005684	250001
1748	3463	1.00005684	203
1749	3526	1.00005775	28
1749	3587	1.00006083	28
1749	4194	1.00006937	44
1749	4566	1.00007609	44
1750	3533	1.00005775	46
1750	3590	1.00006083	46
1750	4210	1.00006937	62
1750	4577	1.00007609	62
1751	3533	1.00005775	64
1751	3590	1.00006083	64
1751	4210	1.00006937	64
1751	4577	1.00007609	64
1752	3533	1.00005775	1
1752	3533	1.00005775	0
1752	3590	1.00006083	1
1752	3958	1.00006447	0
1752	4210	1.00006937	1
1752	4375	1.00007119	0
1752	4577	1.00007609	1
1752	4745	1.00007791	0
1753	3533	1.00005775	64
1753	3958	1.00006447	64
1753	4375	1.00007119	64
1753	4745	1.00007791	64
1754	3533	1.00005775	0
1754	3958	1.00006447	3.64e-006
1754	4375	1.00007119	1.82e-006
1754	4745	1.00007791	1.82e-006
1755	3632	1.00006174	250009
1756	3632	1.00006174	250001
1757	3632	1.00006174	7504
1758	3633	1.00006174	257505
1758	3633	1.00006174	257505
1759	3633	1.00006174	7504
1760	3633	1.00006174	0
1761	3633	1.00006174	7504
1762	3633	1.00006174	250001
1763	3635	1.00006174	250000
1764	3635	1.00006174	0
1765	3635	1.00006174	257505
1765	3635	1.00006174	257505
1766	3635	1.00006174	7504
1767	3635	1.00006174	0
1768	3635	1.00006174	7504
1769	3635	1.00006174	250001
1770	3636	1.00006174	257505
1770	3636	1.00006174	257505
1771	3636	1.00006174	7504
1772	3636	1.00006174	0
1773	3636	1.00006174	7504
1774	3636	1.00006174	250001
1775	3638	1.00006174	257505
1775	3638	1.00006174	257505
1776	3638	1.00006174	7504
1777	3638	1.00006174	0
1778	3638	1.00006174	7504
1779	3638	1.00006174	250001
1780	3639	1.00006174	250001
1781	3639	1.00006174	250006
1782	3639	1.00006174	0
1783	3640	1.00006174	250001
1784	3640	1.00006174	250008
1785	3640	1.00006174	0
1786	3652	1.00006174	180
1787	3660	1.00006174	250001
1788	3660	1.00006174	180
1789	3793	1.00006351	64
1789	4228	1.00007023	64
1789	4593	1.00007695	64
1790	3810	1.00006356	64
1790	4245	1.00007028	64
1790	4609	1.000077	64
1791	3810	1.00006356	64
1791	4245	1.00007028	64
1791	4609	1.000077	64
1792	3843	1.00006356	46
1792	4276	1.00007028	46
1792	4637	1.000077	46
1793	3867	1.00006356	257505
1793	3867	1.00006356	257505
1794	3867	1.00006356	7504
1795	3867	1.00006356	0
1796	3867	1.00006356	7504
1797	3867	1.00006356	250001
1798	3869	1.00006356	250005
1799	3869	1.00006356	250001
1800	3869	1.00006356	7504
1801	3870	1.00006356	250010
1802	3870	1.00006356	250001
1803	3870	1.00006356	7504
1804	3871	1.00006356	250007
1805	3871	1.00006356	250001
1806	3871	1.00006356	7504
1807	3872	1.00006356	257505
1807	3872	1.00006356	257505
1808	3872	1.00006356	7504
1809	3872	1.00006356	0
1810	3872	1.00006356	7504
1811	3872	1.00006356	250001
1812	3873	1.00006356	250009
1813	3873	1.00006356	250001
1814	3873	1.00006356	7504
1815	3874	1.00006356	250009
1816	3874	1.00006356	250001
1817	3874	1.00006356	7504
1818	3875	1.00006356	257505
1818	3875	1.00006356	257505
1819	3875	1.00006356	7504
1820	3875	1.00006356	0
1821	3875	1.00006356	7504
1822	3875	1.00006356	250001
1823	3876	1.00006356	250009
1824	3876	1.00006356	250001
1825	3876	1.00006356	7504
1826	3877	1.00006356	28
1826	4310	1.00007028	28
1827	3900	1.00006356	46
1827	4331	1.00007028	46
1828	3900	1.00006356	64
1828	4331	1.00007028	64
1829	3900	1.00006356	1
1829	3900	1.00006356	0
1829	4331	1.00007028	1
1829	4331	1.00007028	0
1830	3900	1.00006356	64
1830	4331	1.00007028	64
1831	3900	1.00006356	0
1831	4331	1.00007028	0
1832	3903	1.00006356	1414
1833	3906	1.00006356	1498
1834	3909	1.00006356	254
1835	3915	1.00006356	250001
1836	3915	1.00006356	536
1837	3918	1.00006356	250001
1838	3918	1.00006356	536
1839	3921	1.00006356	250001
1840	3921	1.00006356	254
1841	4075	1.00006846	250007
1842	4075	1.00006846	250001
1843	4075	1.00006846	7504
1844	4076	1.00006846	257505
1844	4076	1.00006846	257505
1845	4076	1.00006846	7504
1846	4076	1.00006846	0
1847	4076	1.00006846	7504
1848	4076	1.00006846	250001
1849	4077	1.00006846	257505
1849	4077	1.00006846	257505
1850	4077	1.00006846	7504
1851	4077	1.00006846	0
1852	4077	1.00006846	7504
1853	4077	1.00006846	250001
1854	4079	1.00006846	257505
1854	4079	1.00006846	257505
1855	4079	1.00006846	7504
1856	4079	1.00006846	0
1857	4079	1.00006846	7504
1858	4079	1.00006846	250001
1859	4082	1.00006846	250000
1860	4082	1.00006846	0
1861	4082	1.00006846	257505
1861	4082	1.00006846	257505
1862	4082	1.00006846	7504
1863	4082	1.00006846	0
1864	4082	1.00006846	7504
1865	4082	1.00006846	250001
1866	4083	1.00006846	250001
1867	4083	1.00006846	250011
1868	4083	1.00006846	0
1869	4084	1.00006846	250001
1870	4084	1.00006846	250006
1871	4084	1.00006846	0
1872	4097	1.00006846	169
1873	4105	1.00006846	250001
1874	4105	1.00006846	169
1875	4126	1.00006932	64
1875	4513	1.00007604	64
1876	4140	1.00006937	64
1876	4525	1.00007609	64
1877	4140	1.00006937	64
1877	4525	1.00007609	64
1878	4164	1.00006937	46
1878	4543	1.00007609	46
1879	4300	1.00007028	250001
1880	4300	1.00007028	250006
1881	4300	1.00007028	0
1882	4302	1.00007028	250007
1883	4302	1.00007028	250001
1884	4302	1.00007028	7504
1885	4303	1.00007028	250001
1886	4303	1.00007028	250008
1887	4303	1.00007028	0
1888	4304	1.00007028	250001
1889	4304	1.00007028	250010
1890	4304	1.00007028	0
1891	4305	1.00007028	250001
1892	4305	1.00007028	250008
1893	4305	1.00007028	0
1894	4306	1.00007028	257505
1894	4306	1.00007028	257505
1895	4306	1.00007028	7504
1896	4306	1.00007028	0
1897	4306	1.00007028	7504
1898	4306	1.00007028	250001
1899	4307	1.00007028	250007
1900	4307	1.00007028	250001
1901	4307	1.00007028	7504
1902	4308	1.00007028	250010
1903	4308	1.00007028	250001
1904	4308	1.00007028	7504
1905	4309	1.00007028	250010
1906	4309	1.00007028	250001
1907	4309	1.00007028	7504
1908	4342	1.00007028	1406
1909	4352	1.00007028	250001
1910	4352	1.00007028	536
1911	4481	1.00007518	257505
1911	4481	1.00007518	257505
1912	4481	1.00007518	7504
1913	4481	1.00007518	0
1914	4481	1.00007518	7504
1915	4481	1.00007518	250001
1916	4482	1.00007518	257505
1916	4482	1.00007518	257505
1917	4482	1.00007518	7504
1918	4482	1.00007518	0
1919	4482	1.00007518	7504
1920	4482	1.00007518	250001
1921	4484	1.00007518	257505
1921	4484	1.00007518	257505
1922	4484	1.00007518	7504
1923	4484	1.00007518	0
1924	4484	1.00007518	7504
1925	4484	1.00007518	250001
1926	4485	1.00007518	257505
1926	4485	1.00007518	257505
1927	4485	1.00007518	7504
1928	4485	1.00007518	0
1929	4485	1.00007518	7504
1930	4485	1.00007518	250001
1931	4486	1.00007518	250000
1931	4878	1.0000819	250000
1932	4486	1.00007518	0
1932	4878	1.0000819	0
1933	4486	1.00007518	257505
1933	4486	1.00007518	257505
1934	4486	1.00007518	7504
1935	4486	1.00007518	0
1936	4486	1.00007518	7504
1937	4486	1.00007518	250001
1938	4660	1.000077	257505
1938	4660	1.000077	257505
1939	4660	1.000077	7504
1940	4660	1.000077	0
1941	4660	1.000077	7504
1942	4660	1.000077	250001
1943	4661	1.000077	250010
1944	4661	1.000077	250001
1945	4661	1.000077	7504
1946	4662	1.000077	250009
1947	4662	1.000077	250001
1948	4662	1.000077	7504
1949	4663	1.000077	250010
1950	4663	1.000077	250001
1951	4663	1.000077	7504
1952	4664	1.000077	250010
1953	4664	1.000077	250001
1954	4664	1.000077	7504
1955	4665	1.000077	250010
1956	4665	1.000077	250001
1957	4665	1.000077	7504
1958	4666	1.000077	257505
1958	4666	1.000077	257505
1959	4666	1.000077	7504
1960	4666	1.000077	0
1961	4666	1.000077	7504
1962	4666	1.000077	250001
1963	4667	1.000077	250009
1964	4667	1.000077	250001
1965	4667	1.000077	7504
1966	4668	1.000077	257505
1966	4668	1.000077	257505
1967	4668	1.000077	7504
1968	4668	1.000077	0
1969	4668	1.000077	7504
1970	4668	1.000077	250001
1971	4695	1.000077	167
1972	4698	1.000077	122
1973	4706	1.000077	250001
1974	4706	1.000077	167
1975	4709	1.000077	250001
1976	4709	1.000077	122
1977	4785	1.00008008	257505
1977	4785	1.00008008	257505
1978	4785	1.00008008	7504
1979	4785	1.00008008	0
1980	4785	1.00008008	7504
1981	4785	1.00008008	250001
1982	4786	1.00008008	257505
1982	4786	1.00008008	257505
1983	4786	1.00008008	7504
1984	4786	1.00008008	0
1985	4786	1.00008008	7504
1986	4786	1.00008008	250001
1987	4873	1.0000819	250010
1988	4873	1.0000819	250001
1989	4873	1.0000819	7504
1990	4874	1.0000819	257505
1990	4874	1.0000819	257505
1991	4874	1.0000819	7504
1992	4874	1.0000819	0
1993	4874	1.0000819	7504
1994	4874	1.0000819	250001
1995	4876	1.0000819	257505
1995	4876	1.0000819	257505
1996	4876	1.0000819	7504
1997	4876	1.0000819	0
1998	4876	1.0000819	7504
1999	4876	1.0000819	250001
2000	4877	1.0000819	257505
2000	4877	1.0000819	257505
2001	4877	1.0000819	7504
2002	4877	1.0000819	0
2003	4877	1.0000819	7504
2004	4877	1.0000819	250001
2005	4878	1.0000819	257505
2005	4878	1.0000819	257505
2006	4878	1.0000819	7504
2007	4878	1.0000819	0
2008	4878	1.0000819	7504
2009	4878	1.0000819	250001
2010	4879	1.0000819	257505
2010	4879	1.0000819	257505
2011	4879	1.0000819	7504
2012	4879	1.0000819	0
2013	4879	1.0000819	7504
2014	4879	1.0000819	250001
2015	4889	1.0000819	227
2016	4896	1.0000819	250001
2017	4896	1.0000819	227

