file 64855446 1613098641                                        
version 2
run scriptTraffic-0-20210211-21:57:12-12008
attr configname scriptTraffic
attr datetime 20210211-21:57:12
attr experiment scriptTraffic
attr inifile _XHostSpineLeaf/ini_generated.ini
attr iterationvars ""
attr iterationvarsf ""
attr measurement ""
attr network XHost_SpineLeaf_Network
attr processid 12008
attr repetition 0
attr replication #0
attr resultdir results
attr runnumber 0
attr seedset 0
param **.borderLeaf.**.packetCapacity 5
param **.leaf[*].**.packetCapacity 5
param **.spine[*].**.packetCapacity 5
param **.leaf[*].H[*].numApps 4
param **.leaf[*].H[*].app[0].typename "\"TcpSinkApp\""
param **.leaf[*].H[*].app[1..].typename "\"TcpSessionApp\""
param **.leaf[*].H[*].app[1..].tSend 0
param **.leaf[*].H[*].app[1..].sendBytes 0
param **.leaf[0].H[0].app[1].connectAddress "\"leaf[0].H[1]\""
param **.leaf[0].H[0].app[2].connectAddress "\"leaf[0].H[1]\""
param **.leaf[0].H[0].app[3].connectAddress "\"leaf[0].H[1]\""
param **.leaf[0].H[1].app[1].connectAddress "\"leaf[0].H[0]\""
param **.leaf[0].H[1].app[2].connectAddress "\"leaf[0].H[0]\""
param **.leaf[0].H[1].app[3].connectAddress "\"leaf[0].H[0]\""
param **.leaf[1].H[0].app[1].connectAddress "\"leaf[1].H[1]\""
param **.leaf[1].H[0].app[2].connectAddress "\"leaf[1].H[1]\""
param **.leaf[1].H[0].app[3].connectAddress "\"leaf[1].H[1]\""
param **.leaf[1].H[1].app[1].connectAddress "\"leaf[6].H[1]\""
param **.leaf[1].H[1].app[2].connectAddress "\"leaf[4].H[0]\""
param **.leaf[1].H[1].app[3].connectAddress "\"leaf[5].H[0]\""
param **.leaf[2].H[0].app[1].connectAddress "\"leaf[2].H[1]\""
param **.leaf[2].H[0].app[2].connectAddress "\"leaf[2].H[1]\""
param **.leaf[2].H[0].app[3].connectAddress "\"leaf[2].H[1]\""
param **.leaf[2].H[1].app[1].connectAddress "\"leaf[1].H[1]\""
param **.leaf[2].H[1].app[2].connectAddress "\"leaf[1].H[1]\""
param **.leaf[2].H[1].app[3].connectAddress "\"leaf[7].H[0]\""
param **.leaf[3].H[0].app[1].connectAddress "\"leaf[5].H[1]\""
param **.leaf[3].H[0].app[2].connectAddress "\"leaf[5].H[0]\""
param **.leaf[3].H[0].app[3].connectAddress "\"leaf[6].H[0]\""
param **.leaf[3].H[1].app[1].connectAddress "\"leaf[3].H[0]\""
param **.leaf[3].H[1].app[2].connectAddress "\"leaf[3].H[0]\""
param **.leaf[3].H[1].app[3].connectAddress "\"leaf[3].H[0]\""
param **.leaf[4].H[0].app[1].connectAddress "\"leaf[4].H[1]\""
param **.leaf[4].H[0].app[2].connectAddress "\"leaf[4].H[1]\""
param **.leaf[4].H[0].app[3].connectAddress "\"leaf[4].H[1]\""
param **.leaf[4].H[1].app[1].connectAddress "\"leaf[6].H[1]\""
param **.leaf[4].H[1].app[2].connectAddress "\"leaf[0].H[1]\""
param **.leaf[4].H[1].app[3].connectAddress "\"leaf[3].H[0]\""
param **.leaf[5].H[0].app[1].connectAddress "\"leaf[5].H[1]\""
param **.leaf[5].H[0].app[2].connectAddress "\"leaf[5].H[1]\""
param **.leaf[5].H[0].app[3].connectAddress "\"leaf[5].H[1]\""
param **.leaf[5].H[1].app[1].connectAddress "\"leaf[3].H[1]\""
param **.leaf[5].H[1].app[2].connectAddress "\"leaf[4].H[0]\""
param **.leaf[5].H[1].app[3].connectAddress "\"leaf[2].H[0]\""
param **.leaf[6].H[0].app[1].connectAddress "\"leaf[6].H[1]\""
param **.leaf[6].H[0].app[2].connectAddress "\"leaf[6].H[1]\""
param **.leaf[6].H[0].app[3].connectAddress "\"leaf[6].H[1]\""
param **.leaf[6].H[1].app[1].connectAddress "\"leaf[5].H[1]\""
param **.leaf[6].H[1].app[2].connectAddress "\"leaf[7].H[1]\""
param **.leaf[6].H[1].app[3].connectAddress "\"leaf[2].H[1]\""
param **.leaf[7].H[0].app[1].connectAddress "\"leaf[3].H[1]\""
param **.leaf[7].H[0].app[2].connectAddress "\"leaf[0].H[0]\""
param **.leaf[7].H[0].app[3].connectAddress "\"leaf[1].H[0]\""
param **.leaf[7].H[1].app[1].connectAddress "\"leaf[6].H[1]\""
param **.leaf[7].H[1].app[2].connectAddress "\"leaf[4].H[1]\""
param **.leaf[7].H[1].app[3].connectAddress "\"leaf[3].H[0]\""
param **.leaf[0].H[0].app[1].sendScript "\"3 112; 4 182; 7 280; 10 132; 11 1466; 14 274; 15 253; 20 107; 24 170; 27 1421; 29 1446; 30 144; 32 213; 33 205; 36 287; 37 155; 43 1498; 44 265; 45 120; 46 156; 47 251; 48 1484; 49 1470; 51 113; 52 1403; 53 1433; 54 1476; 55 1439; 56 250; 58 174; 60 1457; 64 1452; 66 233; 70 1454; 71 251; 72 1470; 74 1427; 75 1437; 76 1465; 83 176; 84 292; 85 1441; 86 149; 88 1420; 89 238; 90 198; 92 1420; 93 1402; 95 217; 96 148; 100 1469; 101 1453; 104 256; 106 1422; 108 110; 111 277; 112 267; 117 1489; 118 289; 120 1408; 122 136; 123 159; 124 1441; 127 252; 128 146; 131 1409; 133 242; 134 1421; 136 219; 139 144; 140 116; 146 1457; 147 184; 148 1454; 149 1444; 150 140; 153 290; 154 243; 155 227; 156 286; 158 138; 159 1445; 160 1475; 161 152; 168 1409; 169 110; 171 1499; 173 1488; 174 132; 175 212; 177 1431; 178 1485; 180 261; 181 294; 183 246; 184 190; 195 1420; 197 242; 202 239; 203 1485; 204 1496; 205 163; 206 119; 207 1478; 209 1404; 210 1413; 211 1451; 212 250; 213 1426; 218 189; 220 1496; 221 125; 222 1428; 223 248; 224 1410; 229 1436; 232 180; 234 172; 235 1470; 236 1407; 240 168; 241 123; 242 1438; 244 125; 246 196; 247 1449; 248 1477; 250 151; 252 127; 255 1466; 259 246; 260 1497; 261 191; 262 103; 263 153; 265 1427; 267 1463; 268 1438; 275 130; 276 274; 278 1463; 279 1486; 280 1403; 281 171; 282 1493; 283 1445; 286 1435; 287 218; 289 103; 290 1425; 295 152; 297 210; 301 1476; 304 160; 305 1408; 307 1458; 312 1490; 315 274; 316 1430; 318 150; 319 1435; 322 296; 323 109; 326 169; 328 1466; 331 1498; 339 277; 340 177; 341 237; 345 1405; 346 247; 347 1474; 348 288; 350 190; 352 265; 354 259; 359 1469; 360 154; 362 226; 366 195; 367 268; 369 196; 371 1406; 372 1441; 374 100; 375 198; 377 1442; 378 1479; 379 1456; 380 1427; 381 1496; 382 213; 384 222; 386 288; 387 1440; 390 193; 391 1442; 392 1410; 395 1467; 398 172; 400 242; 404 1456; 405 1475; 406 295; 407 1409; 410 148; 415 1440; 416 1410; 417 1423; 421 260; 422 115; 425 282; 426 279; 429 273; 431 1427; 432 196; 433 251; 434 1474; 435 1472; 436 167; 438 281; 440 292; 441 1427; 443 198; 444 1440; 448 1431; 451 162; 454 1493; 455 142; 456 1481; 457 1454; 460 120; 461 1482; 462 219; 464 267; 467 1490; 470 1424; 474 256; 475 1416; 478 1401; 480 217; 481 209; 482 295; 483 141; 484 210; 487 1437; 488 129; 489 1495; 490 192; 491 142; 494 1488; 495 1424; 496 212; 498 1437;\""
param **.leaf[0].H[0].app[2].sendScript "\"3 104; 6 1482; 8 1411; 9 176; 14 120; 15 239; 16 1412; 18 165; 20 1403; 21 170; 22 1483; 23 128; 25 1486; 26 102; 29 1463; 31 1460; 33 1471; 35 293; 36 1427; 38 107; 42 280; 53 1479; 55 229; 59 1408; 60 1408; 64 256; 65 197; 66 140; 68 1467; 69 253; 70 1433; 74 264; 75 1482; 80 244; 83 1482; 84 1412; 85 1433; 86 1400; 87 1487; 89 228; 90 1456; 91 168; 93 176; 95 1411; 96 263; 98 144; 100 1476; 102 1405; 104 1434; 114 292; 115 186; 116 1464; 117 1476; 119 1476; 121 231; 123 1458; 125 1441; 130 1409; 132 297; 133 262; 134 219; 137 1408; 139 1471; 140 105; 141 1430; 144 1490; 146 1431; 147 158; 149 1413; 151 242; 152 122; 153 175; 154 1437; 156 1465; 160 145; 164 1478; 169 195; 171 1450; 172 165; 174 1403; 176 197; 177 1481; 181 146; 187 1481; 191 138; 192 1453; 197 273; 199 1408; 201 1432; 203 297; 206 227; 208 1495; 209 261; 212 131; 213 220; 215 130; 217 153; 220 240; 222 1403; 225 1403; 226 1429; 231 1489; 234 194; 235 1465; 236 1479; 238 1444; 239 286; 240 1483; 241 213; 245 139; 247 1448; 248 1456; 251 1411; 253 1431; 255 196; 257 132; 258 240; 260 141; 261 1445; 263 167; 264 245; 266 1461; 267 136; 273 134; 274 1483; 278 1483; 280 1419; 282 100; 283 261; 284 260; 287 205; 291 244; 293 1420; 295 1410; 296 175; 298 1455; 300 287; 301 1493; 302 1429; 303 111; 304 1438; 305 1424; 306 1475; 307 275; 310 258; 312 210; 313 102; 316 1402; 319 1437; 321 1499; 323 1426; 324 1459; 325 252; 331 1439; 333 1482; 334 190; 336 193; 341 178; 343 1497; 344 1442; 346 1406; 351 242; 354 1419; 355 171; 358 205; 359 1448; 360 163; 364 104; 365 183; 368 1437; 369 1460; 374 1445; 376 1469; 377 275; 380 177; 382 269; 385 173; 386 188; 388 1493; 390 196; 397 1419; 399 1474; 400 206; 401 122; 403 1403; 406 293; 407 214; 410 119; 413 1427; 416 169; 418 1473; 421 236; 424 1411; 425 1492; 426 1479; 427 200; 428 1490; 432 1457; 434 1471; 435 1464; 436 249; 438 264; 439 187; 440 108; 443 1457; 444 1499; 445 201; 446 115; 449 1408; 451 1449; 453 115; 454 184; 456 148; 459 1426; 461 1460; 463 199; 464 118; 465 278; 467 1490; 468 159; 475 202; 476 1467; 478 159; 479 1423; 480 1423; 481 244; 482 1435; 484 1426; 487 1425; 488 1496; 491 1403; 492 110; 494 1400; 495 1463; 496 213; 499 1410;\""
param **.leaf[0].H[0].app[3].sendScript "\"1 1446; 5 1437; 6 141; 8 247; 9 1450; 10 1420; 13 279; 14 242; 18 167; 20 216; 21 1416; 23 1492; 24 244; 25 193; 26 279; 27 1480; 28 122; 31 1400; 35 1421; 36 1451; 37 299; 38 1467; 40 1442; 41 147; 42 1449; 44 210; 46 221; 48 1443; 49 1416; 51 112; 52 112; 56 1445; 58 1421; 60 173; 63 1464; 68 1435; 74 1460; 75 1400; 77 1477; 78 1427; 80 223; 82 223; 83 1400; 89 1400; 92 1455; 98 293; 99 242; 103 1498; 105 116; 106 243; 112 154; 113 1477; 115 154; 116 1482; 122 244; 124 1429; 126 1403; 132 240; 134 1483; 136 281; 137 1493; 138 193; 140 253; 141 1424; 143 1488; 145 1481; 146 286; 147 1465; 149 121; 150 292; 151 1452; 153 183; 155 218; 159 170; 160 1434; 161 274; 162 150; 163 1419; 164 1438; 165 220; 166 1436; 167 239; 172 1442; 176 1471; 177 1413; 179 212; 180 210; 183 151; 190 212; 191 246; 192 175; 194 219; 195 242; 196 1432; 197 203; 200 287; 202 1445; 209 1485; 214 1437; 215 283; 216 290; 218 268; 219 223; 222 119; 224 233; 226 1442; 228 206; 229 187; 230 164; 232 1468; 233 145; 234 1459; 235 221; 236 1428; 242 156; 244 1499; 245 123; 246 219; 247 229; 248 194; 252 1445; 253 1423; 255 1488; 256 1405; 257 1415; 259 157; 261 1494; 264 1465; 266 131; 268 225; 269 1403; 270 1449; 272 226; 274 164; 276 1434; 277 173; 280 1448; 281 1442; 285 1410; 286 1490; 287 129; 288 1421; 290 204; 293 1436; 296 1454; 298 1425; 303 1424; 304 1442; 307 1496; 308 166; 309 170; 311 162; 313 1456; 314 1413; 317 1452; 318 270; 321 224; 322 249; 325 1424; 326 173; 327 200; 329 1423; 330 1487; 333 242; 334 221; 336 195; 338 279; 339 254; 340 290; 343 138; 344 1405; 346 1485; 348 103; 349 1413; 352 165; 353 283; 357 1482; 358 1458; 359 1433; 361 1404; 362 110; 364 104; 373 1411; 375 183; 376 1409; 377 146; 378 1465; 381 1443; 382 264; 383 247; 387 106; 388 293; 389 1488; 391 165; 392 138; 393 257; 394 1466; 395 1486; 396 135; 399 224; 401 288; 405 1432; 406 1434; 408 1486; 410 1470; 414 181; 415 1421; 417 1449; 418 1481; 419 132; 421 1494; 424 1401; 427 1402; 428 279; 429 1469; 431 1436; 433 1495; 435 184; 438 1439; 441 1491; 442 212; 443 1408; 446 190; 452 207; 453 254; 454 145; 456 114; 460 108; 463 1432; 465 1474; 467 118; 468 129; 469 1410; 475 1407; 477 1433; 479 1432; 481 217; 485 1415; 486 1423; 487 1483; 491 154; 492 138; 493 1492; 496 1466; 498 246;\""
param **.leaf[0].H[1].app[1].sendScript "\"2 1446; 3 1488; 9 278; 10 293; 11 245; 12 131; 13 1440; 14 1434; 15 1421; 16 157; 17 216; 18 248; 22 182; 25 188; 27 1467; 29 1438; 30 249; 31 229; 32 188; 36 1405; 38 1444; 40 144; 45 1457; 46 292; 50 1445; 52 272; 53 1470; 56 131; 65 1489; 66 155; 68 270; 69 202; 70 241; 75 1426; 76 1443; 79 1489; 80 196; 81 1454; 82 176; 84 1477; 86 1467; 87 243; 88 1415; 89 1497; 90 1456; 92 1408; 94 178; 97 1463; 98 1457; 101 138; 102 1490; 104 167; 106 1493; 112 1494; 113 1448; 114 191; 115 1420; 119 1405; 120 1432; 121 276; 125 1488; 126 1432; 127 166; 128 1479; 132 1430; 135 175; 141 1491; 144 181; 146 284; 147 1462; 150 212; 153 1456; 154 148; 155 1430; 156 155; 158 1499; 161 228; 162 1464; 163 1475; 164 152; 165 129; 167 283; 168 1452; 170 180; 175 149; 178 178; 181 278; 182 1428; 184 1413; 186 1440; 187 1468; 188 136; 189 210; 191 1459; 192 279; 194 228; 195 1496; 196 173; 199 1428; 201 1434; 202 1467; 204 1492; 206 143; 207 1463; 209 181; 213 1499; 214 191; 219 255; 220 1432; 223 1498; 226 1449; 228 288; 233 179; 234 1473; 235 258; 236 147; 238 102; 240 1432; 243 1476; 246 1473; 249 124; 250 1481; 252 119; 255 137; 256 1470; 260 169; 261 126; 262 200; 263 215; 266 192; 268 156; 269 1461; 272 239; 275 1419; 276 233; 277 1449; 279 1413; 281 1464; 284 276; 287 1431; 288 1447; 289 141; 291 103; 292 131; 293 1482; 295 1401; 296 118; 297 144; 299 116; 300 1451; 302 154; 305 240; 306 197; 310 129; 311 1497; 313 1486; 314 194; 315 1497; 316 128; 317 207; 319 1494; 320 244; 322 248; 325 1431; 326 187; 328 1472; 332 1413; 334 269; 337 1486; 342 212; 343 1489; 345 1437; 346 1445; 347 181; 348 1403; 350 1496; 354 175; 356 1494; 357 1447; 359 1411; 360 221; 361 1489; 363 1440; 364 1417; 365 1484; 367 285; 368 286; 369 1401; 371 1454; 373 1460; 374 1435; 375 1452; 376 274; 377 1427; 378 169; 381 1482; 383 131; 386 252; 390 101; 391 297; 392 149; 394 1448; 395 1480; 396 1463; 397 1419; 402 1454; 403 110; 405 215; 408 175; 410 1416; 411 173; 412 1445; 413 1444; 415 1422; 416 1457; 418 1402; 420 102; 422 1488; 423 1474; 424 125; 427 1436; 430 1460; 434 1455; 437 1443; 439 1439; 444 131; 445 1424; 450 168; 454 150; 456 1444; 457 284; 458 1462; 459 1424; 465 1451; 467 1428; 468 1452; 470 1447; 471 1477; 473 1445; 476 1477; 477 161; 478 107; 479 1465; 482 184; 483 1424; 484 1493; 486 275; 489 174; 492 1402; 493 1436; 495 183; 498 1481; 499 1424;\""
param **.leaf[0].H[1].app[2].sendScript "\"1 1466; 5 1452; 11 1432; 12 251; 13 211; 14 217; 19 256; 20 174; 22 160; 25 1478; 26 122; 28 285; 30 1422; 36 105; 37 101; 38 205; 44 1408; 45 268; 46 1444; 47 1476; 49 1434; 51 1444; 52 1495; 53 1444; 54 1466; 57 1402; 60 1459; 63 121; 65 1446; 69 147; 71 1476; 72 1488; 73 1469; 74 1498; 75 1478; 77 153; 78 1401; 79 1464; 80 1469; 83 269; 84 1491; 85 1408; 87 219; 91 221; 92 225; 93 233; 94 1468; 97 1467; 99 251; 100 299; 101 285; 102 253; 103 1409; 105 228; 107 235; 109 294; 111 151; 112 1437; 119 117; 120 1482; 122 1453; 123 203; 125 240; 130 1470; 132 1458; 133 144; 134 1457; 136 259; 139 1433; 140 143; 146 1407; 148 1488; 149 295; 150 1436; 153 1470; 154 117; 155 282; 156 1444; 160 1432; 162 283; 164 1424; 167 1458; 169 209; 172 101; 174 134; 177 1480; 180 111; 181 1462; 183 1446; 187 1468; 189 146; 190 219; 191 1408; 192 1424; 195 1418; 196 1454; 203 1423; 206 1417; 207 147; 208 1462; 209 110; 212 1493; 213 252; 214 267; 215 125; 216 1436; 217 177; 218 262; 222 1410; 226 1482; 229 1464; 230 107; 232 105; 233 1408; 238 1493; 240 212; 241 1441; 242 1413; 243 1405; 245 1416; 246 167; 248 158; 249 1497; 251 284; 252 1418; 253 1411; 254 1489; 256 174; 258 1411; 260 134; 261 186; 263 217; 266 1474; 273 1406; 276 1470; 278 1455; 279 1439; 281 211; 283 1472; 286 1449; 287 152; 289 1466; 290 254; 294 161; 297 231; 298 1451; 304 1400; 307 197; 309 1457; 310 252; 315 140; 317 1484; 319 1432; 320 1460; 321 197; 323 1468; 324 1406; 328 165; 330 1413; 332 1421; 333 122; 334 1410; 337 189; 341 137; 346 1456; 349 1441; 350 1402; 351 181; 354 289; 360 296; 362 1451; 368 1493; 372 1463; 373 1495; 374 1416; 376 1444; 377 133; 379 1472; 380 163; 384 157; 386 127; 392 1400; 393 209; 394 1470; 395 179; 396 297; 397 1408; 398 1472; 400 1439; 401 1468; 402 232; 403 1457; 404 1425; 406 272; 409 1417; 414 1478; 415 238; 416 251; 418 202; 419 156; 420 1439; 423 1457; 424 198; 427 1400; 428 263; 430 210; 431 1489; 433 1471; 434 221; 435 1426; 439 143; 441 205; 442 197; 447 145; 448 1401; 449 127; 451 1408; 452 278; 453 171; 454 1469; 456 278; 457 1437; 459 1437; 461 1449; 464 1454; 465 1487; 466 179; 468 125; 469 1484; 470 290; 471 205; 473 126; 475 104; 478 210; 480 167; 485 1406; 486 1424; 487 243; 488 1462; 490 1458; 492 1454; 495 102; 498 1409; 499 229;\""
param **.leaf[0].H[1].app[3].sendScript "\"2 1445; 3 1435; 4 285; 5 1440; 6 1464; 7 103; 9 281; 10 260; 12 1457; 20 1420; 21 1461; 23 1430; 25 1426; 29 1408; 30 299; 35 137; 36 169; 37 238; 40 1480; 43 294; 48 1418; 49 1418; 51 1415; 56 103; 59 1437; 62 292; 63 1476; 66 1417; 68 193; 69 277; 71 160; 74 133; 75 239; 80 127; 81 167; 82 201; 84 1464; 85 1417; 86 1407; 97 1442; 98 286; 99 1468; 100 105; 104 138; 106 1415; 108 115; 112 257; 113 236; 115 299; 120 1483; 124 1404; 127 1426; 128 1460; 130 1462; 132 104; 135 1460; 136 1459; 140 266; 142 1476; 143 1448; 145 163; 147 160; 149 1449; 151 1444; 156 212; 158 1413; 162 1461; 164 1412; 165 1436; 167 235; 169 164; 171 254; 172 1491; 173 153; 174 1480; 178 213; 179 1486; 180 161; 181 256; 184 1476; 186 1456; 187 1460; 189 284; 190 1442; 191 1433; 193 1439; 194 133; 195 1427; 196 131; 197 1480; 199 130; 201 1488; 210 1411; 213 1462; 215 188; 220 224; 221 1411; 222 1480; 224 204; 231 1441; 234 196; 236 1479; 237 218; 238 225; 239 276; 243 1491; 247 170; 252 1497; 253 206; 254 1407; 255 204; 258 1438; 259 116; 262 122; 264 194; 266 177; 270 180; 274 1421; 275 1484; 277 1435; 278 205; 281 1462; 283 1450; 284 1432; 287 264; 293 1485; 294 1424; 297 167; 299 196; 301 227; 305 195; 306 120; 308 1497; 309 1476; 311 1438; 314 1435; 317 1455; 320 153; 321 109; 324 1422; 326 179; 328 1468; 329 1405; 330 269; 336 1467; 339 232; 341 257; 343 179; 344 152; 345 226; 347 1495; 349 1446; 350 1475; 354 117; 355 1443; 356 138; 357 1495; 359 178; 360 182; 362 172; 366 1403; 367 294; 369 1445; 370 1459; 371 167; 373 205; 374 206; 375 1469; 379 263; 380 1451; 381 172; 384 1453; 385 163; 386 173; 388 1486; 389 1460; 390 1414; 393 140; 396 1417; 397 1439; 399 229; 400 299; 402 1401; 404 298; 405 212; 407 1459; 409 100; 412 1498; 413 129; 414 159; 419 1479; 424 1434; 426 203; 429 1487; 430 1442; 431 283; 436 149; 441 1410; 442 1428; 443 224; 447 1486; 448 293; 451 166; 452 297; 453 275; 454 221; 456 210; 457 1454; 458 1448; 459 1488; 460 1488; 462 156; 464 111; 466 192; 468 225; 469 1407; 471 1482; 472 1450; 475 1460; 476 241; 477 1472; 480 291; 481 1494; 483 253; 484 101; 488 245; 491 1424; 493 289; 495 1409; 497 1455; 498 249;\""
param **.leaf[1].H[0].app[1].sendScript "\"1 1455; 3 1435; 5 1475; 6 1434; 9 1492; 10 276; 14 157; 15 123; 16 1405; 18 281; 20 1413; 22 1476; 23 203; 24 1475; 25 1421; 29 229; 35 168; 36 107; 40 1407; 44 273; 46 1418; 47 130; 50 163; 51 1435; 55 184; 58 1449; 62 1442; 67 233; 69 168; 71 1469; 72 126; 73 108; 74 272; 75 268; 76 1440; 81 258; 83 1491; 84 243; 88 1403; 91 138; 95 1415; 96 1405; 97 1429; 100 1408; 101 236; 103 1467; 105 184; 107 191; 111 227; 114 100; 116 253; 120 187; 121 1440; 122 293; 123 1405; 125 1484; 127 1428; 131 266; 135 1483; 136 181; 138 194; 140 1462; 141 270; 142 1452; 144 149; 145 295; 146 1471; 147 136; 148 1497; 153 270; 156 1476; 157 1409; 158 253; 159 121; 160 1454; 162 186; 164 207; 165 270; 172 1404; 179 236; 182 235; 183 1421; 186 202; 188 223; 193 142; 195 1438; 196 123; 198 1485; 200 246; 201 1424; 204 1491; 205 1401; 206 276; 209 115; 211 126; 212 148; 214 1481; 215 139; 217 1427; 219 138; 222 1400; 228 1417; 230 298; 231 1458; 232 179; 234 145; 237 227; 238 1472; 241 187; 242 1485; 243 1471; 248 1424; 250 111; 251 1445; 254 1480; 257 1412; 258 151; 263 171; 265 208; 267 1442; 269 1430; 272 1409; 274 1451; 277 201; 278 1414; 279 186; 281 249; 284 1409; 285 106; 289 1483; 290 1447; 291 158; 294 1433; 296 1441; 297 1466; 298 239; 300 170; 302 193; 303 1473; 305 1481; 307 1443; 309 139; 312 246; 313 1487; 316 1416; 318 182; 319 1491; 321 293; 328 1442; 329 1436; 330 1495; 331 290; 333 255; 334 170; 336 1457; 338 180; 343 1461; 346 1429; 348 179; 350 116; 351 1414; 353 1450; 355 224; 360 1450; 362 192; 363 1466; 367 215; 368 146; 369 1418; 370 1432; 372 1413; 373 1467; 374 1490; 375 1499; 376 1413; 377 132; 379 124; 382 1492; 386 106; 387 118; 393 1401; 394 1488; 396 166; 397 1413; 398 1481; 399 1460; 400 160; 401 109; 404 1405; 405 1474; 408 1475; 414 111; 417 128; 419 268; 420 1441; 421 1464; 424 153; 426 1407; 431 1493; 435 1443; 436 1458; 437 1429; 438 1490; 439 1497; 442 165; 443 1472; 445 1478; 447 1453; 449 128; 451 1472; 452 263; 453 1467; 454 1441; 456 1489; 458 1401; 461 281; 466 1448; 470 1445; 471 1436; 472 295; 474 203; 475 1445; 478 113; 480 1442; 481 299; 482 152; 483 283; 484 1431; 486 142; 489 1481; 490 111; 493 175; 494 1418; 498 248; 499 1467;\""
param **.leaf[1].H[0].app[2].sendScript "\"2 208; 6 130; 8 1433; 9 1448; 10 291; 12 219; 14 1499; 15 243; 16 235; 17 192; 18 1453; 20 1476; 21 102; 28 116; 31 274; 34 111; 36 237; 37 1447; 45 1494; 46 265; 48 1400; 49 1462; 50 1427; 54 1400; 55 1463; 57 160; 60 286; 62 1430; 63 1493; 65 1483; 67 1429; 68 225; 69 152; 71 224; 73 201; 75 177; 76 1436; 78 1473; 81 1403; 83 223; 84 234; 86 1491; 87 1469; 88 133; 89 1402; 91 233; 92 156; 93 1461; 94 118; 96 1473; 97 178; 99 234; 100 1464; 101 161; 102 136; 105 279; 106 206; 107 236; 112 204; 113 1487; 115 1410; 116 123; 118 1486; 120 168; 121 237; 123 1429; 127 1439; 128 1446; 129 229; 130 121; 132 1490; 135 1458; 136 1480; 137 1466; 139 1429; 140 253; 141 1425; 143 1417; 146 1465; 147 1423; 148 124; 149 1451; 150 1459; 151 283; 152 265; 153 1420; 157 201; 161 1412; 162 1475; 170 1489; 171 1490; 174 142; 176 268; 178 1438; 182 101; 183 116; 184 181; 187 130; 188 1448; 190 167; 191 1495; 192 1408; 197 1460; 200 199; 204 1483; 208 1467; 211 1463; 212 1493; 214 1451; 215 1465; 218 1458; 219 1478; 220 278; 222 220; 223 268; 225 132; 228 1457; 230 105; 232 132; 233 244; 234 104; 235 1406; 242 1428; 244 1438; 255 234; 258 209; 260 151; 261 142; 263 279; 265 1420; 270 241; 271 268; 273 1429; 277 1415; 283 178; 286 1408; 287 222; 289 1454; 292 265; 294 264; 296 245; 297 1445; 299 231; 301 1466; 302 164; 303 1418; 304 1410; 305 193; 307 1417; 308 1405; 309 270; 310 170; 311 299; 312 1400; 314 164; 317 275; 318 1446; 320 1456; 322 1477; 323 236; 325 1477; 326 1409; 330 1457; 334 203; 338 1442; 339 1456; 340 1431; 341 1484; 343 284; 345 1428; 348 102; 350 260; 352 242; 353 1488; 357 1423; 358 287; 360 118; 361 244; 362 1487; 368 249; 369 1484; 370 1461; 372 1457; 374 157; 375 216; 376 130; 377 1475; 380 218; 381 1460; 383 229; 384 1442; 387 1474; 388 152; 389 1442; 390 234; 391 1481; 396 1424; 397 166; 400 1459; 401 269; 404 1412; 407 1447; 409 1461; 411 1491; 413 1443; 414 162; 415 198; 416 229; 417 292; 420 221; 422 152; 423 1496; 427 209; 429 1454; 438 1495; 440 234; 442 151; 444 195; 449 1406; 450 1488; 453 271; 454 1427; 456 246; 457 1445; 464 1488; 468 282; 470 282; 471 1444; 472 1465; 474 202; 476 1420; 477 191; 479 1463; 482 283; 484 137; 485 1476; 487 294; 488 1477; 493 1451; 495 257; 496 1491; 497 1405; 499 1416;\""
param **.leaf[1].H[0].app[3].sendScript "\"1 1465; 2 1480; 5 1460; 6 163; 8 1403; 9 204; 12 1437; 13 218; 15 285; 16 106; 17 1416; 19 191; 20 1482; 22 134; 23 192; 24 1411; 27 177; 29 1416; 32 143; 33 221; 37 225; 39 1436; 41 244; 43 163; 47 293; 49 257; 50 208; 52 1414; 53 1487; 57 122; 58 1410; 62 1439; 65 211; 66 1493; 68 1425; 70 201; 71 1425; 72 1449; 73 1405; 74 1422; 75 1440; 76 1465; 77 269; 79 1453; 80 1464; 82 195; 83 280; 86 1419; 87 285; 88 1406; 90 1430; 92 208; 93 1478; 94 146; 97 1455; 98 253; 100 1482; 106 1478; 108 1401; 109 156; 110 1408; 112 1474; 115 160; 119 1479; 120 168; 123 201; 125 1488; 126 1468; 128 1441; 129 261; 130 250; 131 1469; 132 1410; 134 193; 136 1488; 138 161; 140 169; 141 154; 145 1415; 146 1486; 147 1488; 148 1473; 149 170; 150 224; 151 1433; 152 1416; 154 1410; 155 1466; 159 1448; 160 1435; 162 1432; 166 1430; 169 280; 172 128; 173 109; 174 1451; 175 1431; 180 275; 182 1406; 183 175; 184 1436; 185 1477; 186 202; 190 1498; 191 1475; 192 235; 193 1473; 194 164; 196 1417; 201 1473; 205 137; 210 137; 213 1431; 216 1462; 217 1484; 219 1423; 220 262; 222 1443; 223 163; 224 1470; 227 1419; 228 239; 229 1418; 230 270; 234 253; 235 103; 236 227; 237 144; 238 222; 239 1440; 240 1410; 241 1480; 244 257; 248 1453; 249 224; 251 1487; 252 1459; 253 231; 257 148; 258 1410; 261 190; 262 290; 264 1476; 265 224; 266 137; 268 1466; 269 129; 270 1420; 271 1488; 273 136; 274 1463; 275 160; 276 288; 281 1410; 282 256; 285 233; 286 247; 287 280; 288 174; 289 1433; 291 176; 292 1464; 293 296; 295 1484; 301 1459; 302 256; 307 1461; 310 1490; 315 1498; 316 1425; 318 283; 320 107; 321 274; 323 255; 325 1449; 326 226; 327 1491; 328 1469; 330 1464; 333 164; 335 1489; 338 1442; 339 103; 341 179; 342 1498; 344 238; 347 1492; 355 208; 356 1440; 358 141; 359 264; 360 238; 363 1495; 364 1431; 366 138; 368 1482; 369 239; 370 1411; 372 1426; 374 141; 377 1449; 379 1461; 380 1478; 383 251; 386 182; 388 213; 389 1408; 390 1498; 396 169; 397 1411; 399 114; 403 163; 404 105; 407 220; 413 106; 417 235; 420 176; 422 242; 429 1498; 430 282; 431 110; 432 230; 437 112; 439 207; 440 1461; 443 1433; 444 240; 446 260; 447 1470; 449 1491; 455 132; 457 271; 458 1402; 459 161; 460 1403; 462 1402; 464 197; 465 1497; 466 296; 468 236; 469 125; 470 159; 474 172; 476 181; 477 1476; 478 169; 480 1439; 483 215; 485 1406; 488 176; 489 1416; 490 290; 491 104; 492 229; 493 110; 494 1440; 496 1420; 498 1406; 499 1498;\""
param **.leaf[1].H[1].app[1].sendScript "\"1 150; 2 211; 3 1423; 4 1416; 6 1441; 9 230; 10 122; 11 224; 15 1403; 21 1453; 22 1403; 26 165; 27 1456; 28 1451; 29 1488; 30 191; 33 186; 34 1489; 35 1479; 36 1404; 38 1408; 42 243; 43 215; 44 1439; 48 283; 50 183; 51 1435; 53 155; 55 1488; 56 206; 57 1466; 59 1417; 62 188; 63 118; 65 257; 66 279; 67 285; 69 1401; 70 1487; 71 138; 72 116; 73 124; 75 166; 83 1458; 86 1469; 90 1434; 91 1408; 94 1423; 95 208; 96 1459; 99 1417; 104 209; 105 271; 107 1487; 109 1456; 113 116; 116 1486; 121 267; 122 214; 125 132; 130 111; 131 1450; 133 1400; 137 118; 138 213; 143 1459; 144 217; 145 1477; 147 1415; 149 160; 153 1417; 155 222; 160 293; 161 1471; 164 139; 165 125; 168 173; 172 153; 176 230; 177 1436; 179 1417; 182 1425; 185 1423; 186 1408; 187 1449; 188 1402; 189 159; 190 1427; 191 257; 192 221; 193 1463; 194 234; 196 1459; 201 1424; 202 1421; 205 171; 206 1416; 208 192; 210 1445; 213 155; 214 239; 215 128; 218 269; 221 1466; 231 103; 232 1478; 235 1447; 237 123; 238 1420; 242 126; 243 1470; 244 297; 251 277; 252 1462; 253 169; 255 183; 257 1489; 259 1434; 261 1491; 262 1450; 264 1492; 265 119; 266 1482; 267 253; 268 203; 272 1440; 273 1401; 278 1415; 279 1422; 280 137; 282 107; 283 1406; 284 1477; 285 1423; 289 229; 290 1421; 291 255; 293 1431; 295 285; 296 1491; 298 1432; 300 193; 302 205; 303 1412; 312 232; 314 1434; 322 234; 323 1488; 325 1456; 326 252; 327 269; 328 1446; 329 1414; 330 293; 332 252; 333 1447; 335 1409; 338 136; 339 1401; 341 1429; 342 174; 345 221; 346 225; 348 289; 349 165; 352 256; 353 1428; 354 1453; 359 1419; 361 287; 362 169; 364 1492; 366 1424; 371 1494; 372 248; 373 286; 374 1458; 376 104; 382 1449; 385 1489; 387 120; 389 1495; 390 174; 391 1433; 394 1439; 396 1440; 399 1445; 400 1451; 402 1429; 403 113; 404 201; 406 185; 407 1487; 408 183; 412 1478; 415 1403; 418 282; 419 1445; 420 1431; 423 253; 424 209; 425 1408; 426 1400; 429 205; 432 1435; 433 233; 437 1466; 442 286; 443 1473; 446 262; 449 1460; 451 196; 453 132; 455 119; 456 216; 457 1437; 458 172; 461 299; 462 1462; 465 1412; 466 253; 467 1440; 468 1461; 472 1442; 473 279; 476 297; 477 1435; 479 163; 480 1471; 481 155; 482 258; 483 174; 485 125; 487 1433; 489 293; 491 206; 492 1463; 494 143; 495 194; 496 1452; 497 1440; 499 1493;\""
param **.leaf[1].H[1].app[2].sendScript "\"2 125; 7 1404; 9 1440; 11 151; 12 147; 13 1431; 18 1493; 20 1444; 22 1451; 23 1438; 26 1441; 27 210; 28 1476; 29 1426; 30 252; 31 219; 34 248; 36 199; 41 218; 42 273; 43 104; 47 222; 49 152; 50 113; 52 1492; 59 1481; 60 172; 61 114; 63 212; 65 1472; 67 275; 69 210; 71 1414; 72 239; 75 1489; 78 254; 79 274; 81 1458; 84 1408; 86 264; 88 1459; 90 1492; 91 167; 92 1465; 98 299; 101 1422; 102 1428; 103 1486; 104 1491; 105 1470; 106 1483; 109 1429; 110 1479; 111 262; 112 141; 114 1439; 117 155; 119 1464; 121 169; 123 243; 124 115; 128 189; 129 1465; 130 114; 135 232; 138 293; 139 274; 146 1498; 147 1465; 149 1420; 150 1496; 152 1487; 153 239; 154 1432; 159 174; 160 1468; 161 186; 162 232; 163 1496; 168 1472; 173 1401; 174 119; 176 143; 177 260; 178 1491; 184 1451; 186 235; 192 1464; 193 136; 197 1493; 200 1469; 201 1410; 204 107; 205 1452; 207 1442; 208 117; 210 1420; 211 262; 213 1480; 214 1465; 215 1485; 217 1428; 220 210; 221 127; 223 1453; 224 167; 225 1405; 226 111; 228 1488; 229 1451; 234 1489; 235 253; 236 1498; 237 1426; 239 1432; 240 107; 244 229; 246 118; 250 1421; 251 1428; 253 1423; 255 114; 263 221; 264 1412; 269 1445; 271 113; 272 127; 273 168; 279 1405; 284 1461; 285 275; 287 150; 288 1420; 290 1440; 295 172; 298 148; 299 1463; 304 1405; 306 154; 310 142; 311 117; 312 224; 314 1479; 319 109; 321 131; 322 150; 323 241; 325 1441; 326 289; 327 1408; 330 103; 332 1481; 333 1493; 339 1425; 340 1460; 343 230; 347 1442; 348 1451; 349 1474; 350 1400; 351 263; 353 242; 357 1417; 358 1424; 359 1419; 360 268; 362 102; 365 161; 367 1420; 369 245; 373 179; 381 1479; 383 299; 384 1476; 387 139; 388 1419; 389 1415; 392 1410; 395 259; 399 198; 404 1493; 411 150; 421 160; 422 1463; 423 1423; 428 1419; 429 266; 432 1472; 434 106; 435 1401; 438 199; 442 1406; 444 1476; 449 1445; 450 202; 454 1423; 457 1442; 459 159; 460 135; 461 1458; 464 231; 465 111; 466 246; 467 1450; 469 109; 471 190; 473 1433; 475 106; 477 1455; 478 1450; 479 276; 480 228; 481 168; 484 1420; 487 130; 490 115; 491 1495; 492 151; 497 1480; 498 1455; 499 228;\""
param **.leaf[1].H[1].app[3].sendScript "\"4 1424; 5 233; 9 1414; 10 140; 11 250; 12 1457; 15 150; 18 167; 19 1407; 20 128; 23 246; 24 1410; 25 258; 27 1472; 32 245; 33 134; 34 130; 36 203; 38 278; 42 151; 44 297; 45 1471; 48 1429; 49 231; 50 147; 51 1498; 52 266; 57 1497; 58 1473; 59 181; 62 1406; 63 214; 64 240; 65 1494; 67 1486; 68 1422; 69 1479; 70 1451; 76 1439; 78 1410; 79 1486; 81 241; 82 1431; 84 1401; 85 202; 89 1424; 91 184; 93 297; 94 1476; 95 1478; 96 205; 101 1496; 102 179; 103 1459; 105 255; 113 179; 114 191; 116 206; 119 296; 121 1411; 122 228; 123 297; 124 1455; 130 214; 134 1442; 136 209; 138 1422; 140 241; 141 1411; 142 153; 143 1425; 144 165; 150 1458; 154 139; 156 249; 157 1422; 158 1413; 160 169; 161 295; 162 1406; 164 1460; 165 1471; 166 1423; 168 1405; 169 279; 171 1489; 175 188; 177 119; 180 1475; 186 293; 187 119; 188 256; 190 1429; 194 285; 195 133; 199 165; 201 1413; 202 222; 205 1479; 206 185; 207 1403; 211 1407; 217 1457; 218 130; 227 1418; 229 268; 230 299; 231 206; 233 232; 234 1440; 235 236; 236 1407; 238 103; 245 148; 246 149; 247 228; 249 120; 255 1412; 256 1447; 257 1491; 258 1447; 259 1466; 262 1450; 263 1437; 267 152; 269 1411; 270 198; 273 1492; 276 199; 278 284; 279 1449; 280 170; 281 238; 283 1441; 285 1435; 287 203; 288 174; 290 225; 292 1400; 293 243; 294 1403; 295 222; 296 1441; 297 218; 300 224; 301 180; 302 1439; 303 1495; 305 258; 307 1424; 309 123; 310 196; 311 206; 312 246; 314 168; 316 146; 317 136; 324 1446; 325 290; 326 1494; 328 171; 329 1414; 331 1444; 332 1479; 333 117; 334 1424; 335 1440; 336 238; 337 273; 338 234; 340 1451; 343 1413; 344 174; 345 261; 346 1463; 347 1493; 348 202; 351 164; 352 290; 354 1489; 355 1472; 362 1466; 363 135; 364 148; 367 158; 368 1466; 370 1483; 371 1473; 374 274; 375 1435; 376 1485; 377 257; 378 1487; 383 1405; 387 1401; 388 1439; 392 147; 393 157; 394 150; 397 242; 398 1448; 401 1479; 402 1459; 403 254; 405 1494; 407 1411; 408 221; 409 1426; 411 1496; 414 214; 415 289; 416 252; 417 219; 421 200; 427 1467; 428 1463; 430 1426; 431 1472; 433 1468; 435 172; 436 265; 437 1434; 439 114; 440 112; 441 241; 444 286; 445 218; 450 1494; 452 1431; 453 180; 455 247; 456 142; 457 1427; 460 1421; 462 1431; 464 143; 466 1492; 468 1499; 469 1426; 475 143; 476 244; 477 1473; 478 1474; 481 142; 482 1463; 483 1420; 484 1479; 485 1478; 486 1450; 487 194; 489 229; 492 1483; 495 1470; 496 170; 497 1427; 498 1434;\""
param **.leaf[2].H[0].app[1].sendScript "\"2 131; 5 1489; 7 225; 8 1431; 9 125; 10 219; 11 139; 12 248; 13 1470; 14 1476; 15 273; 17 113; 18 290; 20 1431; 21 1423; 25 230; 30 1404; 32 235; 33 1447; 34 1459; 35 1459; 36 109; 40 147; 43 102; 45 1463; 46 190; 49 290; 50 286; 52 220; 53 1461; 55 1497; 57 285; 59 187; 62 238; 63 1475; 65 1488; 67 167; 68 243; 69 1493; 71 154; 72 1495; 74 229; 75 1454; 77 134; 80 116; 81 1438; 82 1410; 83 1407; 84 166; 86 1415; 88 136; 89 185; 92 1408; 94 231; 96 159; 97 1491; 100 1478; 101 1437; 104 1410; 105 1409; 113 1416; 114 118; 115 219; 116 182; 118 263; 119 1425; 121 132; 125 137; 130 1439; 131 1438; 132 173; 134 218; 136 270; 137 178; 138 181; 139 218; 141 1410; 142 117; 143 212; 145 1425; 146 1412; 149 1456; 150 1432; 153 1432; 155 1403; 160 1458; 161 262; 163 222; 164 111; 165 1471; 166 1404; 167 1477; 168 1410; 171 1427; 172 1489; 174 1494; 176 1434; 177 215; 179 141; 180 1422; 183 182; 187 1491; 189 259; 191 114; 197 1414; 200 1481; 202 261; 203 183; 205 264; 207 1494; 208 1462; 209 290; 210 1418; 211 187; 212 138; 213 1499; 216 1475; 217 165; 219 170; 220 178; 221 1467; 223 1472; 224 1426; 225 174; 226 208; 227 180; 229 157; 232 258; 233 1471; 234 1478; 237 1472; 238 298; 244 1423; 247 280; 248 162; 249 231; 251 243; 252 155; 253 1426; 254 118; 255 1418; 258 1442; 262 197; 266 134; 271 109; 272 192; 273 1451; 275 208; 278 1438; 282 1499; 283 270; 284 1458; 286 1423; 287 1428; 288 108; 290 1496; 291 299; 292 1447; 293 1445; 297 275; 299 1457; 300 1432; 301 202; 302 141; 303 216; 304 272; 305 1438; 307 1492; 308 160; 309 1405; 318 1417; 319 158; 320 221; 322 1464; 323 279; 326 127; 330 135; 333 111; 335 1401; 336 292; 337 1459; 342 201; 347 135; 348 286; 350 1401; 353 1449; 354 288; 355 1451; 356 1430; 361 231; 362 1470; 364 1449; 365 145; 366 188; 367 245; 369 295; 370 167; 371 265; 372 268; 373 1404; 375 1414; 379 211; 382 1481; 383 1426; 385 239; 387 172; 389 140; 390 1463; 392 1430; 394 1465; 395 290; 398 227; 400 278; 403 206; 408 1442; 410 1424; 414 122; 415 1497; 419 1434; 420 181; 421 1409; 422 1429; 425 1489; 427 1464; 430 1413; 432 1481; 434 1441; 436 1499; 437 1494; 438 1463; 440 207; 441 166; 443 279; 445 1463; 447 229; 448 181; 450 139; 451 170; 452 1443; 454 142; 456 177; 458 161; 459 1402; 461 248; 464 1446; 468 1474; 469 1498; 470 1417; 471 261; 473 1483; 474 1478; 476 285; 477 103; 478 1472; 480 294; 481 1462; 484 297; 488 226; 489 1493; 491 1425; 492 184; 493 243; 495 144; 497 237; 499 173;\""
param **.leaf[2].H[0].app[2].sendScript "\"1 275; 2 1451; 5 278; 13 196; 14 208; 16 1400; 17 220; 19 156; 20 1424; 22 274; 24 1498; 26 111; 29 207; 31 272; 34 1411; 35 1443; 38 211; 40 1401; 41 1434; 44 1408; 45 226; 46 227; 47 1423; 48 115; 49 1496; 55 1400; 57 265; 58 1463; 59 286; 61 264; 62 126; 63 271; 66 1489; 70 1418; 72 275; 73 262; 74 268; 75 1404; 76 134; 78 1491; 79 1401; 80 1411; 81 1481; 83 1400; 85 245; 87 1465; 90 1458; 91 1425; 92 1419; 95 1416; 98 1400; 99 226; 100 1407; 103 107; 104 283; 105 1404; 108 264; 110 1472; 111 1447; 112 117; 113 131; 114 178; 115 1432; 120 1429; 122 1440; 123 1409; 124 217; 127 1438; 128 1486; 130 1488; 131 264; 132 154; 133 167; 137 282; 139 140; 144 244; 146 286; 149 145; 150 1424; 154 215; 156 1489; 160 239; 163 181; 166 244; 167 1497; 170 169; 171 1443; 172 114; 174 209; 175 143; 181 276; 182 258; 183 1470; 184 268; 186 1407; 187 1443; 189 230; 190 1457; 191 193; 192 235; 194 205; 196 1448; 197 1458; 199 208; 201 277; 202 1421; 204 1443; 206 274; 208 263; 210 1491; 211 170; 214 124; 217 200; 218 1426; 220 1427; 222 206; 223 135; 226 1460; 229 1480; 232 1449; 233 1442; 234 1426; 235 242; 236 234; 237 111; 238 1442; 239 103; 240 1420; 241 1444; 242 255; 243 219; 244 1400; 246 212; 247 1441; 250 1403; 253 1437; 256 193; 257 1443; 258 1494; 260 255; 264 1452; 265 121; 266 1413; 267 153; 268 1497; 270 234; 271 1426; 273 1413; 274 1463; 275 147; 277 1459; 278 241; 281 203; 282 1455; 283 161; 285 1465; 286 1417; 287 1435; 291 1463; 292 235; 293 105; 295 150; 297 1448; 298 1472; 300 224; 301 1466; 304 232; 308 1400; 309 279; 314 124; 317 1462; 319 1473; 321 1448; 324 1463; 333 257; 334 298; 342 153; 344 287; 345 1408; 347 234; 353 130; 354 1459; 355 1411; 356 151; 357 1419; 358 1425; 362 246; 364 205; 367 1498; 368 136; 369 1429; 370 1426; 371 234; 375 211; 377 1465; 379 202; 381 1499; 383 1438; 389 1448; 393 1441; 395 1451; 396 207; 400 127; 401 201; 403 1491; 404 239; 405 259; 406 1406; 407 177; 409 1478; 415 1457; 417 195; 418 270; 419 1410; 420 104; 421 1499; 422 245; 424 1439; 428 214; 429 1468; 430 100; 431 1434; 433 114; 435 1416; 436 230; 437 230; 438 1491; 439 278; 440 1492; 444 1429; 445 1489; 446 214; 447 1434; 448 236; 449 1449; 452 1445; 453 233; 454 1425; 455 271; 457 133; 458 1440; 459 1492; 460 1457; 462 1487; 463 1474; 465 107; 468 272; 476 1406; 480 130; 481 132; 482 116; 484 1445; 489 1459; 490 1498; 491 1459; 492 1473; 495 1418; 496 1420; 497 1426; 498 212; 499 1480;\""
param **.leaf[2].H[0].app[3].sendScript "\"2 169; 3 298; 6 1460; 10 1477; 12 274; 13 1409; 14 1442; 16 216; 17 172; 18 1489; 21 261; 25 1483; 26 1418; 31 1469; 33 1413; 34 1484; 37 1440; 39 1434; 40 1413; 42 1467; 43 266; 44 1457; 45 1426; 46 1460; 49 1456; 50 255; 52 298; 53 1424; 54 1432; 56 1469; 57 110; 60 1451; 61 173; 62 148; 64 266; 69 197; 70 1469; 71 278; 72 223; 73 1460; 75 1494; 80 1415; 83 1432; 84 221; 85 1474; 87 1465; 88 207; 89 247; 92 1421; 96 148; 97 1486; 98 157; 102 108; 103 189; 104 251; 106 143; 107 243; 108 1419; 109 163; 112 134; 113 116; 116 212; 118 265; 119 299; 122 1405; 124 251; 125 199; 126 1470; 127 1485; 128 1450; 129 1406; 132 238; 134 1428; 135 204; 136 249; 137 253; 140 1431; 143 1463; 144 1475; 145 256; 147 1488; 148 168; 155 1413; 160 155; 161 272; 165 1429; 167 157; 171 1469; 172 201; 173 1487; 176 1467; 177 126; 180 265; 182 151; 183 124; 185 1406; 190 1428; 192 262; 193 106; 195 1481; 196 1453; 198 1476; 199 159; 200 141; 201 203; 203 200; 204 258; 206 1416; 211 138; 212 255; 213 287; 215 185; 216 204; 217 289; 219 1477; 220 1403; 221 1429; 222 1410; 223 1496; 224 1488; 226 116; 230 171; 231 221; 232 1489; 233 126; 234 273; 237 198; 238 136; 239 1475; 240 1442; 241 210; 244 1424; 246 1491; 248 1460; 249 260; 251 1404; 255 1411; 257 1490; 258 255; 263 1466; 264 1453; 265 1461; 266 1476; 267 1448; 269 192; 270 1445; 271 1446; 272 162; 274 1403; 275 1419; 276 197; 277 1451; 278 1494; 281 1497; 282 1426; 285 1419; 289 125; 290 159; 291 291; 292 125; 294 1470; 297 1465; 298 288; 302 183; 304 1401; 307 1464; 309 1441; 310 129; 311 1475; 312 159; 317 143; 318 273; 319 1492; 320 222; 321 1414; 323 122; 331 215; 332 222; 336 1469; 337 1492; 341 165; 342 1406; 343 1442; 345 286; 347 260; 350 103; 351 197; 355 1486; 357 236; 359 1422; 360 1439; 361 1464; 363 1458; 364 1410; 365 1403; 367 218; 369 1420; 371 1456; 373 251; 375 208; 377 148; 381 1459; 383 200; 385 1402; 386 1480; 387 1499; 390 1492; 391 142; 392 1405; 393 1473; 394 173; 398 122; 399 169; 400 1403; 402 293; 403 1437; 404 201; 405 1451; 406 255; 409 146; 410 249; 415 1490; 419 143; 420 194; 427 215; 429 1409; 432 161; 434 1480; 435 1406; 436 1450; 438 147; 439 114; 441 180; 442 1411; 443 272; 447 268; 453 1462; 455 161; 456 264; 462 173; 468 191; 471 1425; 474 204; 478 109; 479 1432; 482 1412; 483 1452; 486 206; 487 234; 489 257; 490 1457; 491 1414; 492 1494; 496 1477; 497 266;\""
param **.leaf[2].H[1].app[1].sendScript "\"2 1498; 4 1445; 5 1498; 8 232; 9 114; 10 1475; 12 151; 14 254; 18 1473; 19 1404; 20 1466; 21 250; 22 103; 24 199; 25 118; 27 298; 29 275; 30 1405; 31 1469; 33 133; 35 172; 38 282; 39 170; 41 221; 42 1409; 43 221; 44 1475; 45 1449; 48 1418; 49 1405; 50 157; 51 1475; 52 266; 53 275; 54 144; 55 1413; 57 198; 58 1413; 59 104; 60 1458; 61 1438; 62 279; 65 1400; 66 101; 67 242; 69 254; 70 1486; 73 1465; 75 1485; 77 173; 79 173; 80 215; 81 1464; 82 1483; 86 1424; 87 230; 88 298; 89 230; 90 1483; 91 129; 94 261; 95 228; 96 1436; 98 119; 100 139; 103 137; 106 299; 107 222; 109 1480; 114 1498; 117 1409; 121 126; 124 1481; 125 1458; 126 151; 127 1433; 129 279; 130 1459; 131 166; 132 294; 133 297; 135 1464; 138 1420; 141 288; 143 1417; 145 1452; 147 181; 149 201; 157 1449; 159 1488; 161 151; 162 281; 163 275; 165 1484; 166 1458; 169 160; 170 204; 172 230; 173 1442; 175 1495; 176 172; 177 1438; 181 1432; 182 1472; 183 1411; 186 110; 189 1486; 192 1495; 193 1452; 194 289; 196 1431; 197 132; 200 122; 201 153; 202 1456; 205 220; 208 179; 210 1412; 214 193; 217 158; 218 1464; 220 1472; 227 1430; 229 1493; 230 1443; 231 114; 232 1406; 234 292; 235 1407; 237 1489; 238 1432; 240 105; 241 279; 242 1400; 243 142; 245 1411; 246 298; 247 1439; 249 155; 252 253; 258 230; 259 1485; 260 1495; 261 218; 263 1420; 264 111; 265 186; 266 1479; 267 226; 269 1401; 270 153; 271 1480; 275 193; 279 189; 282 127; 284 126; 285 134; 286 1414; 288 258; 293 158; 294 1465; 295 1455; 297 1479; 300 1452; 301 106; 308 277; 310 241; 312 1466; 314 1440; 318 125; 319 1485; 320 1473; 321 1466; 322 257; 323 1469; 325 1413; 326 1453; 327 1422; 328 1498; 329 1464; 330 1445; 331 166; 333 1418; 336 101; 337 174; 338 1493; 340 1485; 341 136; 342 1481; 344 1493; 348 1430; 349 119; 350 1418; 351 1407; 352 176; 353 1435; 356 219; 357 264; 361 226; 366 1478; 368 1440; 370 1419; 371 171; 373 201; 375 1456; 378 251; 381 1493; 383 1496; 384 1424; 387 1458; 389 1499; 390 1444; 391 1420; 396 172; 399 1488; 401 1426; 405 1417; 406 1472; 407 1490; 408 1434; 409 1457; 413 139; 414 278; 415 274; 417 1461; 419 144; 420 1436; 422 1465; 423 1470; 424 1429; 428 1495; 430 289; 431 1464; 432 224; 433 233; 434 1438; 435 1429; 436 183; 437 289; 438 225; 439 119; 440 235; 441 1429; 443 1412; 447 207; 448 101; 449 254; 450 1446; 454 114; 456 217; 458 215; 459 1477; 460 1438; 461 135; 463 1420; 464 1482; 466 246; 467 1465; 471 198; 475 144; 477 291; 478 1438; 479 282; 480 205; 481 1434; 482 1416; 484 1447; 485 1481; 486 1436; 487 1486; 488 105; 489 154; 490 1428; 491 1415; 494 1490; 496 1445; 497 159;\""
param **.leaf[2].H[1].app[2].sendScript "\"1 1483; 2 1418; 3 222; 7 1422; 10 288; 13 1405; 16 1499; 18 109; 21 1458; 22 1456; 24 1478; 26 1474; 27 118; 28 1413; 31 173; 33 260; 37 1409; 41 198; 45 1405; 46 1484; 50 273; 52 1418; 53 1431; 54 127; 56 1469; 58 258; 60 234; 63 203; 65 155; 66 1489; 67 1409; 68 161; 70 188; 73 242; 74 1455; 76 1469; 79 107; 81 1401; 82 156; 83 215; 84 253; 85 1403; 89 1402; 90 1488; 94 1438; 102 1429; 104 120; 105 1419; 106 197; 108 1419; 109 1488; 110 1477; 111 1449; 116 222; 117 1425; 119 245; 120 1424; 121 1418; 123 151; 124 1464; 132 274; 134 1408; 137 1476; 139 232; 145 1409; 149 1406; 151 150; 154 1482; 155 245; 156 284; 157 134; 163 1490; 165 1476; 166 1438; 167 114; 169 251; 170 289; 171 240; 173 133; 178 1470; 179 278; 180 248; 181 297; 185 177; 188 260; 189 1477; 191 1406; 192 138; 199 200; 200 116; 201 225; 203 1475; 204 1496; 205 1434; 206 1494; 207 1430; 210 192; 211 222; 213 290; 215 1429; 218 255; 222 1488; 225 109; 226 232; 227 1402; 228 167; 229 194; 230 162; 237 182; 238 1438; 240 1491; 242 1414; 248 239; 251 1474; 253 205; 254 1460; 256 195; 257 1410; 258 206; 260 1428; 261 1426; 263 110; 265 161; 267 193; 268 140; 269 209; 270 253; 278 218; 281 258; 285 1448; 287 268; 288 239; 293 1455; 294 1427; 298 1456; 299 112; 300 206; 304 209; 305 1462; 306 1416; 307 148; 308 197; 312 1419; 315 202; 320 1442; 326 279; 327 133; 328 201; 332 1463; 337 1420; 339 138; 342 203; 343 126; 344 1410; 346 1468; 350 183; 354 1446; 356 259; 361 122; 364 156; 366 188; 370 1422; 371 100; 373 149; 374 248; 375 1419; 377 1492; 378 132; 379 1462; 380 1403; 381 105; 382 1429; 384 1490; 385 1490; 387 1494; 390 292; 392 138; 395 122; 396 1403; 398 275; 399 262; 401 124; 403 104; 405 1440; 406 110; 411 290; 412 123; 414 1412; 416 1415; 418 1463; 420 1495; 421 1477; 422 1463; 423 1442; 424 261; 427 279; 428 1419; 430 1421; 432 261; 434 1484; 435 1484; 438 1482; 441 282; 451 210; 453 1434; 454 276; 455 151; 456 110; 457 211; 462 1455; 464 290; 468 195; 471 1444; 476 105; 478 233; 479 212; 483 1463; 484 1490; 487 1440; 490 193; 497 1474; 499 225;\""
param **.leaf[2].H[1].app[3].sendScript "\"3 1440; 5 163; 8 161; 9 1493; 10 1439; 11 221; 13 199; 14 135; 15 282; 17 193; 20 297; 26 213; 27 1408; 31 1421; 32 180; 34 1484; 37 1477; 38 289; 39 1410; 40 1450; 41 1451; 43 188; 45 104; 50 1483; 53 1451; 55 281; 60 122; 61 284; 63 251; 65 1498; 66 281; 67 1408; 69 1497; 70 289; 71 1470; 76 255; 77 1467; 78 1434; 79 1494; 84 1434; 87 1420; 91 276; 92 1417; 95 107; 96 269; 98 212; 99 113; 100 1489; 101 237; 102 213; 106 1494; 107 1434; 109 162; 110 1497; 112 1476; 113 1418; 114 1460; 115 117; 121 1463; 123 233; 125 1448; 126 1425; 130 251; 131 1493; 133 1444; 134 297; 137 1423; 138 1466; 139 232; 140 284; 142 243; 143 169; 144 160; 145 108; 146 1470; 150 1456; 152 249; 154 148; 156 174; 161 219; 163 268; 166 1450; 168 1416; 171 1440; 175 118; 178 186; 181 179; 182 1466; 183 1448; 184 1423; 185 1470; 186 274; 187 1471; 188 262; 190 1410; 196 1499; 197 169; 199 1499; 200 1493; 201 148; 202 1466; 203 1402; 204 1439; 206 1461; 209 225; 210 277; 211 1446; 212 126; 213 236; 214 292; 217 1417; 218 164; 221 287; 223 1416; 224 103; 225 114; 227 1447; 229 1443; 232 146; 233 252; 234 187; 237 1431; 239 222; 242 1433; 243 243; 244 111; 245 137; 246 1406; 247 1491; 251 1414; 252 196; 255 1421; 256 163; 257 294; 261 1444; 264 1495; 266 1410; 270 143; 272 1495; 273 271; 276 1496; 277 173; 280 183; 281 1480; 286 1437; 287 1492; 288 1414; 289 267; 290 210; 291 1457; 292 219; 294 1420; 295 201; 296 1467; 298 170; 299 270; 300 1457; 304 109; 306 1469; 308 295; 310 1469; 311 191; 313 1439; 318 212; 319 1487; 320 281; 322 1413; 325 1495; 329 140; 331 193; 333 262; 338 204; 339 242; 340 148; 341 1405; 343 254; 345 174; 347 270; 348 139; 349 260; 352 1453; 357 299; 361 1462; 363 136; 368 1413; 369 214; 370 1425; 374 210; 377 1448; 378 143; 380 187; 383 1493; 384 264; 385 1420; 386 269; 388 1441; 392 1462; 394 1440; 395 253; 396 254; 397 1492; 399 206; 400 250; 403 218; 404 1482; 405 1462; 406 1497; 408 174; 410 217; 411 155; 413 112; 416 1456; 417 1452; 418 1415; 420 1465; 423 1428; 424 167; 426 1477; 427 1409; 428 1444; 432 250; 435 152; 436 1451; 440 115; 442 1436; 443 1495; 445 1429; 449 144; 450 124; 456 221; 457 280; 458 1401; 460 1452; 462 1419; 464 1463; 465 1479; 466 280; 467 115; 468 262; 472 168; 473 1430; 476 1467; 477 111; 478 1432; 479 294; 480 276; 482 1411; 490 1438; 491 1404; 493 1402; 495 208; 497 1424; 498 224;\""
param **.leaf[3].H[0].app[1].sendScript "\"2 158; 5 1471; 6 1439; 7 120; 8 1460; 9 193; 10 1497; 15 1461; 16 177; 17 136; 18 1441; 19 1479; 24 1417; 25 147; 27 1464; 30 113; 34 1467; 36 1472; 41 228; 44 165; 47 1447; 48 281; 56 1497; 59 1405; 62 286; 63 1486; 64 1425; 65 1484; 68 254; 69 152; 70 1407; 73 264; 76 1468; 77 214; 81 1424; 82 1422; 83 1402; 87 1467; 89 171; 93 1411; 94 1412; 96 173; 97 205; 98 246; 99 1463; 100 1478; 102 165; 104 278; 110 1415; 111 1428; 112 212; 113 208; 118 1489; 120 1446; 124 1459; 125 102; 127 1453; 128 186; 129 135; 131 264; 132 196; 136 198; 138 1419; 139 1432; 141 1424; 143 1424; 145 281; 148 191; 151 1436; 152 200; 153 1497; 154 223; 157 109; 158 129; 161 1429; 173 1494; 177 277; 178 126; 179 161; 180 1455; 181 1443; 182 297; 183 182; 184 208; 185 175; 189 1411; 190 187; 191 299; 193 279; 195 157; 197 1499; 198 1442; 206 1438; 207 1403; 208 248; 209 298; 210 168; 213 1442; 214 295; 215 261; 217 1499; 218 186; 219 1443; 220 143; 222 167; 224 250; 226 1434; 227 1455; 228 1453; 229 269; 231 224; 233 1467; 238 1489; 239 1417; 240 252; 241 1477; 244 1462; 246 262; 247 1477; 248 129; 251 190; 252 105; 254 101; 257 1482; 258 1430; 259 149; 263 149; 265 1490; 266 146; 267 238; 271 1435; 272 210; 273 1497; 277 147; 278 1456; 280 104; 282 221; 283 134; 284 1439; 285 1411; 286 161; 287 1412; 291 1435; 292 1453; 294 1457; 296 161; 299 1405; 301 103; 303 124; 305 1471; 306 197; 307 259; 310 1476; 311 1488; 312 1404; 313 271; 314 1423; 318 1405; 320 1470; 323 1494; 326 1473; 330 175; 332 269; 333 1411; 336 1403; 339 1427; 340 114; 344 1450; 347 1442; 350 1494; 351 206; 353 121; 355 1420; 358 1496; 359 1488; 362 276; 363 1478; 365 1445; 369 1485; 371 1429; 373 1463; 375 1490; 376 1466; 377 1418; 378 1472; 379 1495; 381 127; 382 157; 384 1472; 386 1466; 390 1494; 392 1428; 393 1430; 394 1497; 399 1465; 400 105; 404 108; 405 260; 406 141; 409 168; 410 204; 412 296; 416 1468; 421 1401; 424 1489; 426 1482; 427 139; 429 291; 430 1410; 431 1403; 432 1405; 433 1450; 434 150; 435 1430; 437 112; 439 1448; 440 1468; 441 1422; 442 1405; 443 106; 444 1452; 445 1472; 446 125; 452 1405; 453 244; 454 1461; 456 214; 457 227; 460 1446; 462 104; 463 135; 464 1455; 466 1492; 469 154; 473 1422; 474 1420; 475 207; 478 137; 483 242; 488 175; 489 1403; 490 218; 491 1409; 493 116; 497 1479;\""
param **.leaf[3].H[0].app[2].sendScript "\"1 1435; 3 1403; 4 140; 5 273; 10 254; 12 188; 13 1421; 14 245; 15 1457; 16 1432; 17 107; 18 125; 19 103; 20 259; 21 1471; 24 266; 29 279; 30 1459; 31 1419; 33 1483; 34 279; 36 271; 37 209; 38 1433; 39 268; 40 1464; 41 163; 43 1459; 44 234; 45 219; 46 1479; 48 268; 52 1472; 54 113; 55 1406; 57 1494; 59 198; 61 168; 63 167; 66 1440; 67 132; 68 1404; 73 1402; 74 1455; 76 107; 79 1406; 80 1474; 81 293; 82 1460; 85 107; 86 232; 87 249; 89 1454; 92 127; 93 1425; 94 108; 95 292; 98 223; 99 223; 102 1425; 103 119; 105 166; 106 245; 107 288; 108 1462; 109 136; 111 1494; 114 164; 115 1456; 116 209; 118 1418; 120 168; 122 1426; 124 1473; 126 272; 127 255; 129 286; 132 283; 134 1487; 137 100; 138 1471; 143 1475; 145 1498; 148 1493; 151 231; 153 116; 155 1430; 156 191; 160 1457; 161 190; 162 1481; 164 185; 165 1447; 166 1483; 168 1414; 173 1423; 177 280; 180 1470; 183 131; 185 256; 187 1458; 188 1436; 193 1404; 194 228; 196 122; 199 297; 201 1405; 204 1477; 205 1450; 206 296; 207 195; 209 163; 210 196; 212 1491; 214 124; 215 284; 218 1418; 221 285; 222 1409; 223 1437; 224 1420; 225 220; 228 218; 229 1401; 231 1419; 232 1407; 234 1421; 235 231; 239 160; 241 141; 243 212; 244 179; 246 211; 249 1432; 250 1469; 252 1438; 253 1406; 254 257; 256 167; 258 265; 259 150; 262 1451; 263 123; 264 1425; 268 1491; 269 1406; 271 234; 272 189; 274 1485; 275 259; 276 119; 277 226; 280 1475; 288 145; 289 1498; 294 298; 295 1423; 296 1464; 298 258; 299 101; 301 166; 304 248; 306 276; 308 1491; 309 1412; 310 251; 311 1410; 313 1440; 315 232; 316 1428; 317 1482; 320 171; 327 272; 328 1479; 330 103; 331 1420; 333 1422; 334 1430; 338 287; 340 1414; 342 276; 343 282; 346 1464; 348 264; 350 1436; 351 1414; 352 112; 353 1410; 356 216; 358 276; 360 1449; 362 1454; 363 1426; 369 1401; 371 179; 372 190; 374 272; 376 256; 378 1443; 380 1444; 381 1429; 383 111; 387 1467; 388 287; 389 1445; 393 1476; 395 1465; 400 1417; 401 1448; 404 1433; 406 183; 409 122; 414 1427; 415 1446; 416 1447; 418 1453; 420 250; 421 1418; 423 277; 425 1427; 428 228; 436 181; 439 220; 441 218; 442 199; 444 1457; 445 195; 446 1457; 448 1487; 450 278; 452 282; 453 1471; 454 1436; 456 1448; 457 1474; 458 1431; 459 1470; 460 218; 461 1498; 463 267; 465 135; 466 1432; 467 208; 468 1471; 469 139; 470 1400; 472 147; 473 112; 476 220; 477 128; 478 220; 479 169; 480 1426; 481 1463; 482 144; 484 184; 485 1430; 487 222; 488 1458; 492 1438; 494 1421; 495 1402; 496 107; 497 270; 499 1496;\""
param **.leaf[3].H[0].app[3].sendScript "\"1 295; 2 180; 3 225; 4 100; 6 129; 7 101; 11 250; 12 1446; 13 1450; 14 1466; 15 1481; 17 235; 20 1477; 24 217; 25 1436; 26 238; 27 1450; 28 230; 29 269; 31 1428; 32 264; 34 139; 35 1449; 37 252; 40 1459; 44 217; 47 210; 49 127; 52 1407; 53 140; 55 1461; 59 126; 64 183; 65 200; 67 1456; 69 1409; 72 1425; 73 251; 75 144; 78 1457; 79 1473; 82 109; 83 249; 84 1435; 85 1404; 87 1433; 88 194; 93 256; 94 1480; 96 100; 98 192; 101 145; 103 198; 104 1409; 106 1482; 107 1413; 108 1494; 109 1421; 110 151; 117 1405; 118 124; 119 1466; 122 1473; 123 1443; 124 1420; 126 185; 127 229; 135 284; 136 167; 141 1412; 142 1466; 144 1488; 145 150; 146 296; 148 203; 150 152; 151 1469; 152 114; 153 101; 154 295; 156 244; 157 1429; 163 1430; 164 102; 165 165; 167 138; 168 264; 170 1423; 171 146; 172 1465; 174 184; 176 1488; 177 164; 178 1441; 179 1452; 181 275; 182 1415; 184 1456; 185 1424; 188 1481; 189 104; 190 1442; 192 128; 194 1477; 196 265; 198 1494; 199 1499; 200 1481; 201 294; 202 206; 204 115; 205 1427; 210 1463; 213 169; 214 134; 216 1455; 218 1470; 219 1410; 220 179; 222 1409; 224 146; 227 1416; 228 1416; 229 233; 230 1447; 233 166; 235 181; 238 268; 239 1493; 240 1489; 241 1460; 242 128; 243 200; 247 181; 249 153; 251 104; 252 1486; 254 297; 255 116; 260 1441; 264 1475; 265 1477; 266 1472; 267 159; 272 107; 275 1478; 277 1406; 281 1458; 282 144; 288 179; 289 133; 290 1466; 291 1456; 294 1483; 299 260; 300 141; 301 158; 303 192; 304 228; 307 203; 309 1419; 311 242; 312 1403; 313 210; 317 203; 320 126; 323 279; 326 1497; 328 1416; 331 154; 332 1457; 334 1424; 335 1420; 338 1494; 339 103; 341 1420; 342 1416; 344 1480; 345 294; 347 195; 348 189; 354 1454; 357 190; 359 1443; 360 152; 362 137; 364 1439; 365 1437; 367 253; 368 109; 370 1491; 371 1479; 372 169; 373 1490; 374 261; 377 263; 383 122; 384 194; 385 240; 389 1468; 390 1475; 397 1473; 398 138; 399 126; 404 279; 406 204; 413 1432; 414 286; 415 1466; 416 1414; 417 118; 418 1414; 419 1444; 421 198; 423 203; 426 1493; 430 240; 435 198; 439 1402; 441 1424; 442 260; 443 259; 444 1462; 447 163; 448 209; 449 1464; 451 1411; 452 139; 454 1412; 457 256; 459 287; 460 130; 463 142; 465 284; 468 1462; 473 1486; 474 265; 477 1488; 481 209; 483 219; 485 1481; 486 106; 489 162; 490 156; 492 1462; 493 135; 495 231; 497 256; 499 1463;\""
param **.leaf[3].H[1].app[1].sendScript "\"3 287; 4 131; 6 247; 7 1481; 8 140; 9 1486; 12 163; 13 250; 14 216; 20 160; 21 1420; 26 1479; 27 160; 29 235; 33 222; 39 216; 40 1496; 41 125; 49 1462; 51 249; 52 1428; 54 163; 56 242; 57 1477; 58 202; 61 217; 62 171; 63 112; 64 134; 65 1406; 66 203; 69 238; 70 198; 71 1413; 72 118; 74 287; 75 1425; 77 271; 78 168; 83 1412; 84 1414; 88 259; 91 298; 93 226; 94 1403; 95 259; 99 282; 101 255; 103 1406; 104 1431; 105 161; 106 162; 109 243; 112 159; 114 1431; 116 1418; 118 296; 121 256; 123 114; 125 1476; 127 170; 130 1492; 131 1418; 134 1421; 136 1499; 139 1416; 140 192; 141 1446; 146 1411; 151 141; 152 1436; 153 100; 155 1485; 156 1488; 157 1480; 160 213; 162 1417; 163 1438; 166 263; 168 1490; 169 162; 170 1479; 172 1402; 173 1493; 175 168; 177 1409; 182 171; 183 1406; 185 102; 186 1416; 188 158; 189 1415; 190 276; 192 235; 193 272; 194 262; 202 1407; 203 286; 204 146; 206 230; 207 1437; 211 179; 214 1433; 220 1440; 223 1412; 225 261; 226 1446; 229 159; 230 1484; 232 1400; 234 152; 235 1466; 238 1427; 240 235; 241 244; 244 241; 245 139; 246 1441; 247 201; 248 1471; 250 299; 252 281; 254 114; 260 1438; 262 273; 263 1446; 265 1406; 266 121; 267 279; 268 1499; 272 1461; 273 1484; 277 232; 278 1404; 280 141; 284 1448; 290 1432; 295 1496; 296 1444; 299 1484; 301 192; 304 1469; 306 220; 314 1435; 315 229; 318 1460; 319 275; 320 1478; 321 1430; 323 187; 327 177; 328 1437; 329 1436; 330 1431; 331 188; 332 150; 333 1436; 335 1431; 336 168; 340 259; 341 159; 344 1457; 346 294; 349 119; 351 125; 353 277; 354 1472; 356 274; 357 296; 358 1468; 360 190; 362 1426; 363 180; 364 230; 369 193; 373 218; 377 1439; 378 1426; 379 1488; 381 221; 383 1425; 385 106; 386 1480; 389 163; 390 250; 391 146; 392 1487; 393 212; 395 1492; 397 285; 398 1454; 401 102; 408 1417; 409 123; 413 1451; 414 1418; 415 1451; 417 1408; 421 1437; 425 1407; 426 124; 428 1468; 431 1495; 433 198; 434 1446; 439 221; 440 1489; 441 1472; 445 1427; 446 1487; 448 191; 449 1479; 451 291; 454 160; 456 169; 459 1485; 460 168; 462 1436; 463 102; 464 183; 468 1402; 470 249; 475 295; 478 1456; 480 227; 482 217; 483 245; 484 194; 485 1477; 486 1483; 488 199; 489 291; 490 1472; 493 1434; 494 1448; 495 168; 499 1480;\""
param **.leaf[3].H[1].app[2].sendScript "\"3 134; 5 1427; 7 1464; 9 111; 13 261; 15 209; 22 161; 23 1491; 24 1482; 25 102; 26 149; 28 137; 30 1413; 36 1400; 37 139; 38 1487; 39 1411; 43 1409; 46 228; 47 1424; 48 1427; 49 116; 50 136; 52 199; 57 1488; 58 1493; 59 111; 64 117; 67 242; 73 1409; 75 1426; 77 186; 80 1480; 83 175; 84 236; 85 210; 86 1428; 87 276; 88 145; 90 189; 91 1480; 94 1484; 96 272; 100 1474; 101 142; 103 284; 104 208; 108 1413; 109 191; 112 1481; 113 270; 114 174; 116 1445; 121 1445; 123 1440; 126 1434; 128 155; 130 117; 131 267; 132 170; 133 1441; 135 145; 139 281; 140 151; 141 123; 142 121; 146 1458; 147 287; 152 1426; 153 159; 154 1410; 156 267; 158 145; 161 146; 164 178; 168 263; 172 1423; 174 169; 175 1455; 176 220; 177 171; 180 1411; 183 1484; 186 275; 189 1480; 193 1446; 200 155; 201 171; 203 183; 204 1456; 209 1469; 211 189; 212 128; 214 278; 215 1497; 217 1440; 218 170; 221 248; 224 138; 225 1483; 228 1435; 229 1400; 232 169; 235 1434; 236 210; 237 1470; 241 110; 247 1486; 249 1406; 250 1470; 251 224; 252 214; 254 1423; 255 244; 257 175; 259 1496; 263 1404; 268 101; 269 1439; 271 262; 272 126; 273 1478; 275 1477; 278 1494; 279 234; 280 105; 282 151; 285 1435; 287 199; 289 230; 290 201; 293 225; 295 1496; 296 160; 300 1489; 303 247; 306 1458; 309 1409; 310 119; 311 167; 312 1447; 316 215; 318 1478; 321 187; 322 1419; 327 1424; 328 1441; 330 239; 331 179; 332 1498; 336 1487; 337 1457; 340 187; 342 1483; 345 102; 350 131; 359 121; 360 1408; 362 190; 364 198; 365 1490; 366 1429; 367 1406; 369 1402; 371 133; 372 1497; 373 1497; 380 1432; 381 294; 385 1435; 388 245; 389 1407; 390 189; 392 1478; 393 289; 395 252; 397 194; 398 268; 399 1409; 402 1452; 403 1424; 405 1424; 406 143; 408 1409; 409 1483; 410 140; 414 1417; 415 176; 416 1449; 417 1458; 419 1464; 421 1456; 422 1423; 423 114; 425 1408; 428 1481; 429 1420; 430 1466; 431 1425; 432 217; 433 218; 434 108; 435 1419; 444 1470; 447 1495; 451 1415; 452 213; 454 1415; 455 1402; 456 245; 457 280; 458 1439; 460 1481; 461 1418; 465 1405; 466 1498; 467 1414; 469 271; 470 1475; 471 124; 472 292; 475 146; 476 1412; 477 1426; 479 1435; 482 1401; 483 234; 484 240; 485 1466; 486 1472; 487 1409; 488 1410; 490 1485; 491 193; 494 1437; 495 1430; 496 1470; 497 1468; 498 1447; 499 1452;\""
param **.leaf[3].H[1].app[3].sendScript "\"1 255; 3 1428; 8 275; 9 1407; 12 205; 13 103; 14 179; 15 1477; 17 229; 19 1473; 21 224; 22 1447; 24 242; 27 253; 28 168; 29 299; 30 1499; 31 1494; 32 1426; 34 112; 35 102; 36 1448; 37 1454; 39 1473; 40 142; 41 1488; 42 1461; 43 157; 44 143; 45 1491; 46 120; 47 1402; 51 1456; 54 1473; 55 113; 57 1433; 58 1414; 59 1400; 60 1458; 68 1499; 69 155; 76 247; 77 112; 78 1403; 82 1405; 85 1448; 86 253; 87 1435; 89 1490; 90 1449; 91 1465; 99 1408; 101 1478; 103 1438; 105 1462; 107 1409; 109 264; 110 1405; 111 164; 112 202; 114 209; 115 146; 116 1463; 119 283; 121 1444; 123 1447; 125 1415; 128 152; 130 1444; 131 280; 133 1495; 136 1477; 137 202; 138 245; 140 1474; 142 1466; 144 1409; 147 146; 149 212; 152 1493; 155 1419; 157 1493; 158 1420; 159 1473; 161 1457; 173 246; 175 1466; 177 151; 178 1407; 180 178; 182 275; 183 190; 186 1403; 187 118; 188 1490; 191 232; 193 1437; 197 1456; 198 1471; 200 182; 204 1473; 211 118; 214 1494; 215 274; 217 1458; 218 248; 219 1492; 221 1437; 222 194; 223 212; 226 1479; 227 129; 229 128; 232 256; 233 1410; 235 1460; 240 166; 242 1493; 243 1402; 245 1454; 249 1487; 254 1447; 255 1448; 256 202; 257 117; 259 1484; 260 1426; 261 1411; 264 1491; 265 1414; 267 205; 268 143; 269 228; 272 250; 273 1416; 274 1486; 275 248; 276 1421; 279 265; 280 1402; 282 1499; 284 136; 286 146; 288 265; 292 116; 294 230; 296 161; 297 1452; 298 144; 299 135; 300 299; 301 199; 303 229; 304 1463; 306 1401; 307 1460; 309 1412; 315 204; 317 1434; 318 1477; 319 161; 321 1462; 325 281; 326 1412; 328 1445; 330 1497; 332 257; 334 1440; 335 259; 336 159; 340 290; 341 192; 344 1458; 345 144; 347 269; 348 1476; 349 151; 352 135; 358 1495; 359 277; 363 1491; 367 1479; 368 1416; 371 1401; 373 138; 374 1483; 375 1468; 376 284; 377 204; 379 182; 380 1465; 382 145; 383 1468; 385 1448; 389 1426; 392 1446; 393 1411; 395 143; 398 1459; 400 1421; 402 1432; 404 1404; 406 1405; 408 1471; 412 1449; 413 228; 419 136; 420 1483; 421 1450; 422 233; 423 1478; 426 149; 427 1419; 428 178; 429 1461; 431 285; 435 1469; 439 1439; 441 119; 442 1413; 443 1417; 445 288; 446 1403; 447 157; 448 170; 452 294; 454 1495; 457 276; 458 290; 461 170; 464 206; 465 1456; 467 1409; 470 1436; 475 1459; 476 151; 477 298; 478 176; 480 1494; 483 120; 485 259; 486 1435; 488 1453; 489 211; 490 206; 491 272; 492 237; 493 178; 494 242; 496 213; 497 1469; 498 134;\""
param **.leaf[4].H[0].app[1].sendScript "\"2 285; 6 246; 7 1486; 11 1475; 13 239; 15 1474; 16 1466; 18 1417; 24 1485; 25 178; 26 1466; 31 1442; 32 289; 33 1489; 38 173; 39 1475; 43 1446; 45 1496; 47 1456; 48 1457; 53 1414; 54 1416; 55 266; 56 1494; 57 1436; 58 194; 63 1492; 65 1461; 67 222; 68 278; 70 1444; 71 256; 73 200; 74 1401; 75 1461; 77 236; 78 1405; 80 1429; 81 184; 89 1490; 92 1434; 93 180; 97 1470; 101 111; 104 1492; 105 144; 106 1495; 107 155; 110 1404; 111 124; 112 233; 113 243; 114 111; 118 1431; 119 137; 125 1488; 126 1422; 128 1473; 129 1407; 130 1419; 131 1465; 135 1456; 136 252; 137 146; 141 156; 142 1407; 146 1418; 147 203; 149 140; 150 1498; 151 1465; 154 104; 156 131; 157 265; 160 119; 161 1450; 162 1433; 164 293; 165 1498; 168 1455; 169 1460; 170 1438; 174 242; 177 290; 178 226; 179 127; 180 1483; 181 234; 182 250; 183 172; 187 1471; 188 1429; 189 1487; 191 292; 194 1420; 195 157; 196 291; 199 1456; 200 1487; 201 1407; 203 266; 205 233; 207 256; 210 159; 214 198; 216 1433; 222 1464; 223 1414; 225 180; 226 1416; 227 1457; 228 102; 232 281; 233 253; 234 112; 236 1446; 238 1428; 239 1426; 241 1486; 242 1409; 244 117; 246 280; 250 171; 254 296; 258 170; 262 255; 263 270; 264 188; 266 1452; 267 272; 269 1481; 270 1441; 271 1454; 274 299; 275 1450; 276 164; 277 1450; 278 237; 279 221; 281 1490; 282 1418; 283 1485; 284 1400; 285 1467; 287 1411; 288 199; 289 133; 290 1414; 293 1424; 294 231; 296 1439; 297 142; 299 1402; 303 1462; 304 296; 307 1437; 310 1424; 311 270; 312 1464; 313 1469; 314 159; 316 1436; 319 1463; 321 115; 322 129; 323 1481; 326 279; 328 280; 331 1455; 332 1411; 334 295; 335 1463; 336 119; 337 285; 340 1496; 341 169; 342 292; 343 268; 349 1497; 351 233; 352 201; 355 1468; 356 281; 357 1455; 359 1449; 361 1492; 363 262; 364 126; 365 1485; 366 1411; 367 1476; 370 176; 371 1451; 372 1442; 373 165; 375 1495; 378 160; 379 223; 380 160; 382 100; 385 265; 386 157; 391 1464; 392 180; 393 211; 397 289; 399 144; 400 268; 402 188; 404 1429; 405 246; 406 201; 408 1452; 409 1442; 411 1471; 412 1482; 419 1438; 423 1420; 425 235; 426 277; 427 1425; 429 1474; 430 227; 434 1441; 435 1423; 437 231; 441 1414; 442 264; 443 1457; 444 1438; 446 1432; 449 186; 450 1406; 452 1415; 457 1446; 458 286; 460 168; 461 1458; 463 199; 465 160; 469 236; 472 240; 474 124; 476 1412; 477 1456; 478 192; 481 1475; 482 1451; 486 275; 487 1441; 489 1463; 490 1472; 491 1416; 492 1433; 493 194; 497 176; 498 129; 499 1428;\""
param **.leaf[4].H[0].app[2].sendScript "\"4 1420; 6 133; 9 1458; 12 165; 13 229; 14 1481; 15 238; 16 183; 17 283; 18 1426; 22 155; 25 1472; 26 165; 27 1451; 28 1481; 31 1414; 33 180; 36 1482; 38 1427; 39 211; 41 1414; 44 243; 45 1417; 46 1447; 47 224; 49 169; 51 1493; 52 1477; 54 1407; 55 201; 57 1421; 58 282; 59 1442; 62 1439; 68 152; 69 171; 71 273; 72 1467; 74 1469; 75 1410; 76 1489; 81 1490; 82 170; 84 1487; 85 1441; 87 1455; 89 195; 92 1433; 93 142; 95 1469; 96 204; 97 219; 102 273; 103 268; 104 125; 105 1481; 110 1462; 111 1403; 113 134; 115 216; 116 1494; 117 275; 119 1430; 120 1420; 121 1497; 122 1452; 127 1416; 131 160; 132 1432; 134 1461; 135 1455; 139 246; 140 1418; 142 145; 144 113; 148 232; 149 218; 151 182; 152 150; 155 1415; 161 1499; 162 1461; 163 1456; 165 104; 167 131; 171 181; 173 108; 174 1413; 175 239; 176 222; 181 1402; 183 196; 185 1425; 187 170; 190 208; 192 194; 195 1465; 196 1412; 202 1429; 204 1443; 209 238; 212 168; 217 152; 219 257; 220 1467; 222 263; 224 182; 225 211; 226 151; 227 1458; 233 227; 234 1432; 241 1480; 242 109; 244 1450; 245 1443; 248 1455; 257 1492; 262 109; 266 1482; 268 1456; 269 274; 270 1451; 275 143; 276 243; 277 1432; 282 1485; 285 219; 288 183; 289 1405; 291 271; 294 118; 296 227; 298 192; 299 235; 300 105; 301 1448; 303 1450; 305 1449; 306 1497; 307 1471; 311 130; 312 1464; 313 1440; 314 1419; 315 1429; 316 170; 324 1495; 325 1495; 327 1416; 329 1495; 330 1477; 331 1462; 332 235; 333 1465; 334 131; 336 1489; 338 1435; 342 1419; 344 1457; 345 1433; 354 1442; 355 1434; 356 254; 357 154; 360 292; 362 204; 364 167; 365 1498; 366 139; 368 1443; 369 118; 370 287; 371 1498; 373 1438; 374 1447; 375 1463; 378 1490; 380 284; 381 212; 383 1445; 384 1466; 385 1427; 386 1420; 389 244; 390 1450; 393 1483; 394 264; 395 1437; 397 1400; 400 296; 404 1402; 405 161; 411 1440; 412 161; 413 1450; 415 1442; 416 135; 417 186; 418 1415; 420 286; 422 1409; 423 166; 424 1458; 426 1463; 427 1428; 429 293; 432 1487; 434 144; 435 1446; 436 1478; 437 181; 440 204; 441 243; 442 1408; 446 196; 447 1436; 448 1436; 449 123; 452 1466; 453 1437; 455 1488; 460 1493; 464 180; 465 228; 466 1412; 467 1408; 468 1481; 469 236; 473 221; 474 1415; 481 218; 483 1409; 485 234; 486 1439; 487 225; 488 1435; 489 1450; 491 1463; 496 1417; 497 128; 498 293; 499 1469;\""
param **.leaf[4].H[0].app[3].sendScript "\"2 1411; 3 1418; 5 1408; 6 1433; 7 1477; 8 147; 11 187; 12 113; 14 283; 17 132; 18 1431; 19 109; 20 204; 21 216; 23 1450; 24 181; 25 1457; 26 1450; 27 240; 28 173; 29 1499; 31 107; 33 1496; 35 1455; 38 169; 40 1406; 42 1467; 43 288; 44 1435; 45 299; 46 1496; 47 195; 48 102; 51 286; 52 1408; 53 242; 57 230; 58 106; 60 1458; 64 157; 65 1413; 68 1474; 69 1455; 71 271; 72 1470; 74 1413; 75 1466; 76 1457; 78 291; 80 1472; 81 1426; 83 114; 84 1414; 85 166; 86 1402; 87 188; 91 259; 92 1421; 93 132; 95 246; 98 1447; 103 1400; 104 1499; 105 156; 106 1476; 112 1450; 114 1436; 115 280; 116 1436; 118 1452; 119 1495; 121 1456; 122 1462; 123 148; 127 205; 128 245; 131 193; 132 194; 133 1405; 135 1424; 139 1445; 140 129; 143 120; 144 1406; 146 1406; 147 121; 149 231; 150 270; 153 1410; 155 187; 159 231; 161 1462; 164 1408; 165 1446; 167 135; 169 1485; 172 131; 174 212; 179 250; 180 1446; 182 193; 183 1445; 185 299; 187 107; 193 1413; 195 105; 196 256; 199 193; 200 286; 201 168; 202 1418; 203 1419; 204 1429; 205 1463; 206 189; 207 157; 210 173; 211 1426; 212 1455; 213 1433; 214 1440; 215 1488; 217 220; 218 1485; 220 1425; 221 198; 227 248; 229 1471; 231 211; 232 1456; 235 295; 237 1408; 238 107; 243 1415; 245 280; 246 163; 248 210; 250 1482; 251 1430; 256 293; 260 207; 262 120; 263 223; 266 1445; 268 296; 271 1483; 274 140; 275 1452; 276 255; 277 227; 278 1434; 280 1408; 282 291; 283 1461; 285 228; 286 1437; 288 275; 292 1473; 294 1413; 295 175; 296 121; 298 1427; 299 1431; 302 1486; 304 176; 305 1480; 306 179; 308 270; 310 1454; 314 269; 315 278; 317 1449; 322 218; 324 246; 327 1496; 330 1484; 331 161; 332 1408; 336 1438; 338 1447; 339 1457; 340 149; 345 1433; 346 292; 352 1419; 353 214; 354 1423; 359 146; 362 287; 365 1447; 366 1474; 368 274; 370 190; 371 1418; 375 161; 376 167; 377 157; 380 227; 381 179; 382 1456; 383 1428; 384 277; 385 1423; 386 227; 388 1406; 389 227; 390 132; 392 1447; 393 1487; 394 248; 396 269; 397 258; 398 1457; 402 1403; 403 160; 404 1488; 406 1479; 409 1442; 413 1440; 415 167; 417 209; 419 1413; 420 209; 421 290; 422 1474; 428 1422; 431 139; 437 220; 440 127; 444 1412; 445 1430; 448 231; 449 242; 450 1449; 453 1414; 461 137; 463 1419; 465 1495; 466 1416; 467 1468; 469 1443; 471 274; 472 299; 473 1407; 481 139; 482 171; 483 287; 484 1402; 485 1449; 487 161; 489 126; 490 1490; 491 233; 493 244; 494 1460; 495 153; 496 1481; 497 1485; 498 221; 499 135;\""
param **.leaf[4].H[1].app[1].sendScript "\"1 1417; 3 102; 8 287; 9 194; 12 107; 13 1422; 28 111; 30 171; 32 1482; 34 120; 36 101; 39 148; 42 299; 44 1490; 46 106; 47 233; 51 1452; 52 153; 54 246; 56 1481; 59 159; 62 191; 66 168; 68 206; 69 1484; 72 200; 73 190; 74 1417; 75 1437; 82 266; 83 1486; 87 1412; 89 1480; 90 118; 92 1442; 93 242; 96 215; 97 1421; 98 112; 99 106; 100 119; 102 1426; 103 244; 104 1411; 105 224; 106 1433; 108 1483; 110 113; 111 190; 113 1414; 116 1405; 117 1463; 123 1414; 126 250; 127 1467; 129 102; 134 1411; 135 171; 136 1485; 137 1405; 139 280; 141 1454; 147 1477; 149 1445; 150 1463; 151 1422; 153 125; 154 195; 155 1404; 156 169; 157 1416; 159 104; 166 203; 167 192; 169 134; 170 1482; 172 1417; 175 215; 176 247; 180 282; 182 1466; 186 109; 187 162; 188 1490; 189 1461; 191 167; 192 1449; 193 135; 196 1465; 197 229; 199 179; 201 230; 203 189; 205 208; 207 120; 209 1426; 211 147; 212 235; 213 164; 214 1427; 216 107; 219 166; 223 272; 226 1423; 231 1408; 232 140; 234 1429; 239 1489; 240 131; 241 202; 242 1488; 243 139; 244 287; 245 159; 247 1436; 248 1475; 249 241; 255 1479; 257 1454; 258 215; 259 200; 261 239; 262 1424; 263 198; 265 199; 266 1462; 267 1425; 268 248; 269 179; 271 1405; 272 1466; 275 1468; 276 139; 280 180; 281 178; 284 1444; 285 1478; 286 192; 289 126; 290 1450; 291 268; 294 1467; 297 149; 298 178; 299 250; 303 1475; 304 1461; 305 293; 309 175; 310 1445; 312 1459; 314 196; 315 240; 316 1433; 317 268; 318 1442; 321 1489; 322 1489; 323 1497; 326 153; 327 1422; 328 149; 329 123; 332 283; 333 299; 334 1437; 339 152; 340 229; 341 1497; 342 1420; 343 1447; 344 1480; 346 1446; 347 134; 351 267; 352 1441; 353 1426; 354 1485; 355 1417; 356 1407; 358 1472; 359 1409; 362 222; 364 1485; 365 1475; 366 272; 367 1400; 369 1450; 371 1436; 373 139; 378 275; 382 1417; 384 297; 385 1470; 386 203; 391 139; 396 177; 401 1453; 403 1480; 408 132; 411 1426; 412 214; 413 1494; 414 1407; 415 181; 416 177; 417 1474; 418 1493; 424 177; 425 1407; 426 1451; 428 191; 429 224; 430 1462; 431 1497; 432 221; 433 288; 434 162; 436 1410; 437 1498; 442 1447; 443 1495; 448 176; 451 223; 452 183; 453 172; 454 1464; 457 148; 460 160; 461 239; 463 1443; 465 1456; 467 1467; 468 125; 469 159; 470 131; 471 1458; 474 1402; 476 182; 477 180; 478 1411; 481 127; 482 1473; 483 1486; 486 157; 487 1425; 490 135; 493 199; 494 1435; 499 184;\""
param **.leaf[4].H[1].app[2].sendScript "\"1 1414; 4 150; 7 252; 8 289; 12 173; 15 1423; 17 128; 18 1426; 19 203; 22 1489; 23 1427; 24 107; 26 1408; 27 143; 28 267; 29 169; 30 1459; 31 230; 32 1487; 33 269; 34 158; 37 137; 40 204; 41 138; 43 1419; 44 148; 48 277; 49 112; 51 1451; 55 210; 58 1444; 60 182; 62 1445; 63 1493; 65 1491; 69 1455; 70 205; 74 139; 75 114; 79 225; 80 1405; 81 217; 83 1461; 85 183; 89 297; 90 1421; 91 1420; 93 266; 97 1469; 98 1448; 99 1467; 100 217; 102 216; 103 1490; 106 125; 107 128; 108 141; 110 188; 111 1473; 113 212; 119 114; 122 1487; 127 1421; 128 218; 129 231; 132 185; 134 1485; 138 145; 140 202; 143 129; 145 1420; 149 1485; 150 227; 151 183; 159 298; 160 269; 162 1435; 164 1459; 165 1433; 166 1411; 173 202; 174 231; 175 1400; 176 1422; 177 1412; 179 1423; 180 272; 182 1489; 184 137; 188 1469; 189 250; 191 143; 192 179; 193 1421; 194 1440; 195 257; 197 1441; 199 1453; 202 1449; 203 194; 205 254; 206 229; 208 163; 210 1499; 214 180; 216 275; 218 1490; 219 207; 220 293; 222 1436; 224 103; 226 143; 227 199; 230 1429; 234 158; 235 1473; 236 1443; 238 1437; 239 1450; 240 126; 243 218; 244 193; 245 1464; 246 181; 250 1465; 252 1439; 254 255; 257 129; 259 100; 260 128; 261 168; 263 1469; 264 157; 265 1428; 270 222; 271 1446; 272 151; 273 261; 274 288; 275 1421; 276 183; 277 192; 278 1494; 279 217; 280 294; 284 226; 285 1479; 286 280; 287 133; 289 1426; 293 1434; 295 1407; 298 1414; 300 124; 304 275; 305 209; 306 220; 309 130; 310 1430; 312 114; 314 244; 316 1482; 318 240; 321 212; 322 264; 323 1406; 324 209; 325 1439; 326 154; 328 129; 329 1431; 332 1471; 334 179; 335 195; 339 160; 341 1495; 343 279; 344 1409; 346 1432; 347 1423; 352 1440; 355 1470; 356 1478; 362 1425; 363 1487; 364 1491; 366 1403; 367 1466; 370 1405; 372 159; 373 284; 374 1487; 378 121; 379 1433; 380 1415; 381 1497; 385 1464; 389 159; 392 199; 393 1433; 394 293; 395 193; 397 1428; 398 1449; 399 1418; 400 1475; 403 111; 406 292; 407 209; 409 1422; 410 1436; 411 1478; 412 187; 413 1461; 415 1428; 421 1419; 424 232; 426 1444; 427 279; 430 190; 431 1453; 433 137; 434 1434; 435 1407; 436 128; 437 1479; 438 1414; 440 1463; 442 136; 443 180; 446 285; 447 113; 448 1492; 452 108; 453 111; 455 1446; 458 116; 459 128; 460 1400; 467 1483; 474 1479; 478 1450; 479 1457; 481 112; 482 194; 484 1456; 486 149; 488 1447; 494 1400; 497 1452; 498 1402;\""
param **.leaf[4].H[1].app[3].sendScript "\"1 1417; 2 1452; 3 1435; 4 1486; 5 1407; 7 1420; 11 1456; 15 189; 16 119; 19 1495; 24 109; 25 1456; 27 1427; 30 1409; 31 1487; 37 1407; 38 123; 48 1497; 52 1495; 54 1476; 55 1453; 56 1457; 60 1449; 64 1465; 68 186; 69 1404; 70 1451; 72 1498; 74 1441; 75 233; 86 1434; 87 1431; 88 1492; 89 1460; 91 239; 92 1422; 93 1426; 94 219; 98 1435; 100 1403; 102 1402; 105 1446; 108 1445; 109 1476; 110 110; 113 116; 115 299; 117 1469; 119 1441; 120 138; 126 222; 130 1482; 131 1465; 132 1413; 133 1447; 134 1466; 136 1402; 137 106; 138 1490; 139 267; 140 1433; 141 216; 149 1445; 150 220; 151 1497; 152 1479; 155 228; 157 1423; 158 256; 159 180; 161 196; 164 252; 165 200; 169 126; 170 151; 171 1474; 172 298; 175 223; 177 195; 178 222; 179 266; 180 124; 182 230; 183 1408; 184 293; 185 1400; 186 1415; 187 1448; 188 104; 189 255; 191 1498; 192 298; 194 242; 195 1467; 196 1496; 197 1443; 200 1401; 201 1431; 202 282; 203 1442; 204 1427; 207 298; 210 1428; 211 1461; 212 195; 213 1452; 218 1479; 221 286; 222 1495; 223 1494; 224 1460; 225 1419; 227 1429; 229 120; 230 112; 232 1499; 234 268; 237 115; 239 121; 240 224; 245 222; 247 210; 248 104; 249 256; 252 1469; 255 1468; 256 233; 258 156; 260 206; 262 292; 263 1438; 264 146; 268 288; 269 1433; 271 1413; 272 212; 273 1463; 281 106; 284 113; 286 1449; 287 108; 289 187; 293 1465; 294 140; 296 1428; 298 1450; 299 1408; 303 168; 305 1452; 306 159; 309 1494; 312 162; 314 1461; 315 1403; 316 1450; 319 141; 320 261; 321 1482; 322 1490; 323 190; 325 240; 328 240; 329 1493; 330 1477; 333 1477; 334 190; 335 101; 336 217; 337 1488; 339 101; 340 1491; 342 1424; 343 280; 346 201; 347 1478; 348 237; 349 1415; 352 260; 353 159; 354 241; 356 1430; 358 117; 362 1409; 363 1404; 364 164; 365 1429; 369 1457; 370 1492; 371 1430; 372 1470; 373 240; 375 1445; 376 250; 377 1439; 378 169; 381 222; 383 1420; 385 1461; 387 1466; 388 280; 391 1425; 392 1425; 393 151; 395 283; 396 235; 397 1448; 399 1459; 400 246; 404 286; 406 132; 407 104; 411 209; 412 1452; 413 1413; 414 1452; 415 1416; 416 1412; 417 183; 419 167; 421 243; 422 1482; 424 1471; 427 1408; 428 201; 432 1420; 434 157; 439 1416; 440 1419; 444 207; 445 1431; 447 1427; 448 272; 449 290; 450 160; 451 1400; 452 285; 454 1461; 455 1499; 456 198; 458 221; 459 1478; 460 168; 461 287; 462 1448; 465 1476; 466 264; 467 182; 471 1485; 474 1411; 476 282; 478 123; 479 268; 481 240; 482 153; 483 201; 485 1470; 487 1469; 488 1413; 493 119; 494 126; 495 157; 496 1460; 497 193;\""
param **.leaf[5].H[0].app[1].sendScript "\"3 249; 4 171; 6 1448; 9 1423; 10 1454; 12 1476; 14 1453; 17 1453; 20 280; 21 1499; 24 187; 25 1429; 27 212; 29 1424; 30 1450; 31 279; 32 143; 33 1497; 34 146; 35 1440; 36 1404; 37 1437; 39 1403; 40 1433; 44 295; 49 253; 51 1432; 55 1436; 56 1479; 58 1412; 60 1471; 61 1434; 63 215; 64 147; 66 170; 67 207; 68 1409; 69 1497; 73 201; 77 172; 78 292; 79 157; 81 136; 82 1402; 83 221; 85 185; 87 1438; 88 107; 92 1471; 93 155; 95 1404; 96 1409; 97 173; 98 200; 99 200; 101 200; 102 240; 103 1430; 104 1438; 106 121; 110 1496; 114 130; 115 1453; 117 1414; 118 1413; 119 220; 121 236; 123 209; 125 1458; 128 161; 131 1462; 133 1450; 135 1435; 136 194; 139 260; 140 283; 141 1421; 143 215; 144 100; 145 1442; 146 285; 147 1446; 151 120; 152 250; 153 232; 157 1498; 159 1421; 164 178; 167 1481; 169 252; 172 288; 173 253; 176 202; 180 272; 181 149; 183 1484; 184 151; 186 1421; 189 1421; 190 281; 192 1482; 195 1458; 196 220; 198 179; 199 1420; 200 1425; 202 1466; 204 1419; 205 236; 207 1456; 209 1407; 210 1426; 212 129; 214 1462; 215 108; 216 1437; 219 178; 222 286; 225 1425; 230 103; 232 1417; 234 282; 237 158; 239 221; 241 253; 242 223; 245 1431; 249 280; 251 236; 253 1442; 257 110; 258 213; 259 1477; 260 297; 262 149; 266 1448; 269 1498; 270 239; 271 160; 273 1469; 274 161; 276 1471; 279 221; 283 136; 284 175; 286 1455; 287 1477; 288 140; 289 1494; 290 1474; 292 100; 297 100; 298 203; 303 164; 307 1484; 311 299; 314 1478; 315 216; 322 1463; 323 1413; 324 105; 327 1480; 328 126; 329 1479; 330 237; 331 150; 333 1450; 335 278; 336 108; 337 282; 338 1453; 342 1433; 348 220; 349 1471; 350 1412; 351 106; 355 121; 356 280; 358 127; 359 205; 372 1493; 376 232; 378 210; 379 1495; 383 1415; 385 158; 386 144; 388 107; 389 1467; 390 1484; 391 212; 394 1432; 395 199; 396 167; 398 1456; 401 297; 402 1416; 403 167; 404 257; 407 1487; 408 1470; 410 1469; 417 127; 418 184; 419 171; 424 112; 427 1403; 431 1430; 433 180; 437 1447; 439 1428; 443 1459; 444 1417; 445 1407; 447 1482; 448 262; 450 122; 451 261; 457 1486; 461 264; 462 133; 463 1435; 465 1494; 468 149; 472 1445; 474 111; 475 138; 476 1423; 479 127; 480 221; 486 1446; 488 1498; 489 1465; 492 135; 493 1407; 494 159; 496 1493; 499 1461;\""
param **.leaf[5].H[0].app[2].sendScript "\"2 1442; 4 194; 5 1479; 6 1442; 7 112; 10 1436; 12 292; 13 1421; 14 299; 16 180; 17 179; 20 1474; 21 162; 22 254; 23 137; 24 119; 26 1491; 30 250; 31 167; 32 255; 33 173; 35 207; 37 1464; 40 1432; 41 1481; 42 1450; 43 111; 44 199; 45 1449; 47 100; 50 147; 52 169; 56 1456; 57 1491; 60 1421; 62 1455; 65 1487; 67 1423; 69 266; 70 284; 71 256; 73 208; 78 133; 81 1401; 84 102; 90 253; 91 113; 93 1483; 94 1447; 96 141; 97 1488; 99 1445; 101 190; 102 197; 104 212; 105 1459; 107 245; 108 136; 112 284; 116 228; 117 298; 120 1442; 121 1442; 122 250; 123 1468; 128 1495; 130 163; 131 1476; 132 137; 133 125; 134 282; 135 1458; 138 291; 146 133; 147 223; 148 1468; 150 161; 151 1403; 153 1435; 154 123; 155 206; 156 253; 157 1486; 159 1499; 160 1424; 166 237; 168 165; 169 246; 170 154; 171 222; 173 294; 175 1438; 176 1480; 177 1479; 178 209; 179 1409; 180 181; 181 1437; 186 1459; 187 234; 188 150; 189 165; 190 175; 191 194; 192 222; 193 1453; 195 1412; 198 1466; 200 1498; 203 225; 206 106; 207 1488; 208 237; 209 1490; 211 124; 212 1418; 213 127; 221 160; 223 295; 225 1401; 228 1464; 230 1454; 232 211; 234 1437; 236 118; 237 1465; 243 1435; 244 1484; 246 1425; 251 167; 253 220; 255 1403; 258 109; 260 133; 262 298; 264 221; 265 1464; 266 169; 267 1494; 268 1498; 270 113; 271 287; 274 1406; 276 1483; 277 1439; 280 115; 283 1431; 284 200; 287 101; 289 195; 296 1426; 297 1428; 298 268; 299 272; 301 1491; 302 278; 305 252; 309 173; 310 161; 314 1423; 315 1459; 316 1492; 317 249; 318 183; 323 1486; 328 175; 329 1425; 330 1460; 331 1455; 332 101; 333 105; 335 181; 336 166; 338 1445; 339 289; 340 199; 341 1405; 345 1470; 347 131; 348 1439; 354 1497; 357 1485; 360 289; 363 1400; 367 191; 370 1442; 371 274; 372 1469; 375 255; 377 215; 378 230; 383 155; 384 1471; 385 215; 386 227; 389 1410; 390 190; 392 1466; 394 1461; 395 1443; 396 1406; 404 1404; 406 1492; 407 278; 408 1481; 409 252; 410 1457; 411 111; 413 209; 414 158; 418 1408; 421 247; 422 1496; 425 139; 429 1443; 431 1462; 433 183; 434 119; 436 1481; 438 218; 439 1493; 440 215; 441 1422; 446 1452; 447 174; 448 122; 451 251; 452 216; 453 1442; 455 1412; 456 121; 458 1402; 459 144; 460 164; 461 287; 464 225; 465 216; 466 270; 467 1460; 469 244; 470 235; 471 1498; 476 287; 479 188; 480 1412; 482 1441; 484 1428; 485 1476; 486 205; 489 154; 491 1455; 495 215; 497 166; 498 187; 499 281;\""
[...]
1625	64543837 1779 1077983 1161881 467.00009733 502.00013809 58 64 594 19678 9624314
1626	64545616 3364 1077983 1161881 467.00009733 502.00013809 116 0 1 58 58
1627	64548980 1779 1077983 1161881 467.00009733 502.00013809 58 64 594 19678 9624314
1628	64550759 1722 1077983 1161881 467.00009733 502.00013809 58 0 2.88e-005 8.728e-005 1.7822784e-009
1641	64552481 1484 1081814 1160298 468.0002357 499.00055072 49 64 594 15552 7374844
1642	64553965 1500 1081815 1160299 468.00023575 499.00055077 49 64 594 15552 7374844
1643	64555465 1500 1081815 1160299 468.00023575 499.00055077 49 64 594 15552 7374844
1644	64556965 1500 1081816 1160300 468.00023575 499.00055077 49 46 576 14670 6830848
1645	64558465 1810 1074211 1161893 465.00034817 502.00014385 59 64 594 20272 9977150
1646	64560275 1795 1074217 1161894 465.00034822 502.0001439 59 64 594 20272 9977150
1647	64562070 1795 1074217 1161894 465.00034822 502.0001439 59 64 594 20272 9977150
1648	64563865 1795 1074218 1161895 465.00034822 502.0001439 59 46 576 19210 9266474
1655	64565660 404 1077445 1155730 467 499 18 125 1486 13136 16958204
1661	64566064 1177 1078098 1162020 467.0001177 502.00021086 39 28 576 8354 3498456
1662	64567241 1177 1078100 1162021 467.0001177 502.00021086 39 46 594 9056 3811836
1663	64568418 1177 1078100 1162021 467.0001177 502.00021086 39 64 594 9194 3828456
1664	64569595 2241 1078100 1162021 467.0001177 502.00021086 78 0 2 41 43
1665	64571836 1178 1078100 1162021 467.0001177 502.00021086 39 64 594 9194 3828456
1666	64573014 1138 1078100 1162021 467.0001177 502.00021086 39 0 2.046e-005 2.72e-005 4.640392e-010
1667	64574152 950 1078021 1157572 467.00010457 499.00020903 31 28 576 9126 4091278
1668	64575102 950 1078022 1157573 467.00010457 499.00020903 31 46 594 9684 4429858
1669	64576052 950 1078022 1157573 467.00010457 499.00020903 31 64 594 9762 4439158
1670	64577002 1798 1078022 1157573 467.00010457 499.00020903 62 0 1 31 31
1671	64578800 950 1078022 1157573 467.00010457 499.00020903 31 64 594 9762 4439158
1672	64579750 899 1078022 1157573 467.00010457 499.00020903 31 0 0 0 0
1676	64580649 7087 1074459 1159609 465.00044464 499.00048008 230 105 891 98418 46845962
1677	64587736 8730 1074459 1159609 465.00044464 499.00048008 232 2.794e-005 1.00071504 1.0605452 1.0014511624955
1684	64596466 539 1075005 1155741 466 499 24 107 1496 18107 23236387
1685	64597005 402 1075003 1148888 466 497 18 119 1485 11016 13125818
1690	64597407 1184 1078439 1162037 467.00016586 502.00021662 39 64 594 9194 3828456
1691	64598591 1188 1078440 1162038 467.00016591 502.00021667 39 64 594 9194 3828456
1692	64599779 1188 1078440 1162038 467.00016591 502.00021667 39 64 594 9194 3828456
1693	64600967 1188 1078441 1162039 467.00016591 502.00021667 39 46 576 8492 3510108
1694	64602155 1374 1075850 1162074 466.00015807 502.00022829 45 28 576 11502 5203294
1695	64603529 1374 1075851 1162075 466.00015807 502.00022829 45 46 594 12312 5631946
1696	64604903 1374 1075851 1162075 466.00015807 502.00022829 45 64 594 12450 5648566
1697	64606277 2610 1075851 1162075 466.00015807 502.00022829 90 0 1 45 45
1698	64608887 1374 1075851 1162075 466.00015807 502.00022829 45 64 594 12450 5648566
1699	64610261 1358 1075851 1162075 466.00015807 502.00022829 45 0 2.848e-005 9.912e-005 2.1140544e-009
1703	64611619 405 1082805 1152180 469 498 18 108 1486 14916 19320518
1706	64612024 950 1078043 1157615 467.00011033 499.00021479 31 64 594 9762 4439158
1707	64612974 944 1078044 1157616 467.00011038 499.00021484 31 64 594 9762 4439158
1708	64613918 944 1078044 1157616 467.00011038 499.00021484 31 64 594 9762 4439158
1709	64614862 944 1078045 1157618 467.00011038 499.00021484 31 46 576 9204 4097770
1710	64615806 1058 1075890 1159809 466.00016388 499.0004995 35 28 576 7718 3448686
1711	64616864 1058 1075891 1159810 466.00016388 499.0004995 35 46 594 8348 3737874
1712	64617922 1058 1075891 1159810 466.00016388 499.0004995 35 64 594 8474 3753030
1713	64618980 2014 1075891 1159810 466.00016388 499.0004995 70 0 1 35 35
1714	64620994 1058 1075891 1159810 466.00016388 499.0004995 35 64 594 8474 3753030
1715	64622052 1016 1075891 1159810 466.00016388 499.0004995 35 0 1.176e-005 1.176e-005 1.382976e-010
1716	64623068 1374 1075886 1162084 466.00016383 502.00023405 45 64 594 12450 5648566
1717	64624442 1365 1075887 1162085 466.00016388 502.0002341 45 64 594 12450 5648566
1718	64625807 1365 1075887 1162085 466.00016388 502.0002341 45 64 594 12450 5648566
1719	64627172 1365 1075888 1162086 466.00016388 502.0002341 45 46 576 11640 5214946
1726	64628537 1639 1074598 1162068 465.00048485 502.00022787 54 28 576 10314 4536100
1727	64630176 1639 1074599 1162069 465.00048485 502.00022787 54 46 594 11286 4924900
1728	64631815 1639 1074599 1162069 465.00048485 502.00022787 54 64 594 11508 4951768
1729	64633454 3132 1074599 1162069 465.00048485 502.00022787 108 0 1 54 54
1730	64636586 1639 1074599 1162069 465.00048485 502.00022787 54 64 594 11508 4951768
1731	64638225 1593 1074599 1162069 465.00048485 502.00022787 54 0 1.744e-005 4.68e-005 7.354176e-010
1732	64639818 1063 1075921 1159846 466.00016964 499.00050526 35 64 594 8474 3753030
1733	64640881 1066 1075922 1159847 466.00016969 499.00050531 35 64 594 8474 3753030
1734	64641947 1066 1075922 1159847 466.00016969 499.00050531 35 64 594 8474 3753030
1735	64643013 1066 1075923 1159849 466.00016969 499.00050531 35 46 576 7844 3459306
1739	64644079 1639 1074611 1162078 465.00049061 502.00023363 54 64 594 11508 4951768
1740	64645718 1626 1074612 1162079 465.00049066 502.00023368 54 64 594 11508 4951768
1741	64647344 1626 1074612 1162079 465.00049066 502.00023368 54 64 594 11508 4951768
1742	64648970 1626 1074613 1162080 465.00049066 502.00023368 54 46 576 10536 4554976
1743	64650596 1872 1074220 1162006 465.00034822 502.00020812 62 28 576 11834 4882078
1744	64652468 1872 1074221 1162007 465.00034822 502.00020812 62 46 594 12950 5328190
1745	64654340 1872 1074221 1162007 465.00034822 502.00020812 62 64 594 13172 5355058
1746	64656212 3568 1074221 1162007 465.00034822 502.00020812 124 0 1 62 62
1747	64659780 1874 1074221 1162007 465.00034822 502.00020812 62 64 594 13172 5355058
1748	64661654 1826 1074221 1162007 465.00034822 502.00020812 62 0 1.728e-005 3.974e-005 4.896964e-010
1755	64663480 3948 1080564 1157823 468.00004122 499.0002421 128 103 1836 54094 27659380
1756	64667428 5012 1080564 1157823 468.00004122 499.0002421 133 2.714e-005 1.00044334 3.0271039 3.0024710638243
1760	64672440 4874 1075519 1160648 466.00009642 499.00062382 158 111 955 64213 29711281
1761	64677314 5994 1075519 1160648 466.00009642 499.00062382 159 2.842e-005 1.00056764 1.03707298 1.0011477497799
1765	64683308 1877 1074384 1162023 465.00039638 502.00021388 62 64 594 13172 5355058
1766	64685185 1887 1074390 1162024 465.00039643 502.00021393 62 64 594 13172 5355058
1767	64687072 1887 1074390 1162024 465.00039643 502.00021393 62 64 594 13172 5355058
1768	64688959 1887 1074391 1162025 465.00039643 502.00021393 62 46 576 12056 4900954
1779	64690846 247 1080281 1155736 468 499 11 105 1490 8474 10928038
1788	64691093 30 1158472 1158472 499.00030007 499.00030007 1 64 64 64 4096
1792	64691123 380 1074995 1155732 466 499 17 126 1486 10853 13054663
1806	64691503 600 1078166 1153730 467.00012645 498.00020621 20 28 40 788 31184
1807	64692103 600 1078167 1153731 467.00012645 498.00020621 20 46 58 1148 66032
1808	64692703 600 1078167 1153731 467.00012645 498.00020621 20 64 64 1280 81920
1809	64693303 1160 1078167 1153731 467.00012645 498.00020621 40 0 1 20 20
1810	64694463 600 1078167 1153731 467.00012645 498.00020621 20 64 64 1280 81920
1811	64695063 580 1078167 1153731 467.00012645 498.00020621 20 0 0 0 0
1815	64695643 5919 1074134 1159581 465.00033922 499.00047866 192 56 941 80773 38182841
1816	64701562 7384 1074134 1159581 465.00033922 499.00047866 196 3.05e-005 1.00061802 6.0475925 6.0041707579475
1830	64708946 473 1075001 1155748 466 499 21 103 1487 17741 23385077
1833	64709419 600 1078201 1153805 467.00013221 498.00021197 20 64 64 1280 81920
1834	64710019 597 1078202 1153806 467.00013226 498.00021202 20 64 64 1280 81920
1835	64710616 597 1078202 1153806 467.00013226 498.00021202 20 64 64 1280 81920
1836	64711213 597 1078203 1153807 467.00013226 498.00021202 20 46 46 920 42320
1837	64711810 552 1074591 1160849 465.00048022 499.0006497 18 28 576 6801 3344799
1838	64712362 552 1074592 1160850 465.00048022 499.0006497 18 46 594 7125 3595467
1839	64712914 552 1074592 1160850 465.00048022 499.0006497 18 64 594 7155 3598911
1840	64713466 1038 1074592 1160850 465.00048022 499.0006497 36 0 1 18 18
1841	64714504 552 1074592 1160850 465.00048022 499.0006497 18 64 594 7155 3598911
1842	64715056 528 1074592 1160850 465.00048022 499.0006497 18 0 3.208e-005 3.208e-005 1.0291264e-009
1849	64715584 336 1080284 1155737 468 499 15 106 1488 10581 13391763
1861	64715920 552 1074724 1160889 465.00052838 499.00065546 18 64 594 7155 3598911
1862	64716472 555 1074725 1160890 465.00052843 499.00065551 18 64 594 7155 3598911
1863	64717027 555 1074725 1160890 465.00052843 499.00065551 18 64 594 7155 3598911
1864	64717582 555 1074726 1160891 465.00052843 499.00065551 18 46 576 6831 3347163
1880	64718137 5483 1075517 1159903 466.00009642 499.00051196 178 104 536 73072 33614196
1881	64723620 6694 1075517 1159903 466.00009642 499.00051196 178 2.73e-005 0.00066598 0.0397615 1.2111922078e-005
1882	64730314 1280 1079158 1161999 467.00027333 502.00020505 42 28 576 10047 4647505
1883	64731594 1280 1079159 1162000 467.00027333 502.00020505 42 46 594 10803 5022805
1884	64732874 1280 1079159 1162000 467.00027333 502.00020505 42 64 594 10947 5040157
1885	64734154 2436 1079159 1162000 467.00027333 502.00020505 84 0 1 42 42
1886	64736590 1280 1079159 1162000 467.00027333 502.00020505 42 64 594 10947 5040157
1887	64737870 1234 1079159 1162000 467.00027333 502.00020505 42 0 9.76e-006 1.288e-005 1.04992e-010
1888	64739104 1359 1074527 1162088 465.00046036 502.0002341 45 28 576 10706 4937700
1892	64740463 1359 1074528 1162089 465.00046036 502.0002341 45 46 594 11516 5337696
1893	64741822 1359 1074528 1162089 465.00046036 502.0002341 45 64 594 11672 5356512
1894	64743181 2585 1074528 1162089 465.00046036 502.0002341 90 0 1 45 45
1895	64745766 1358 1074528 1162089 465.00046036 502.0002341 45 64 594 11672 5356512
1896	64747124 1318 1074528 1162089 465.00046036 502.0002341 45 0 2.048e-005 4.496e-005 7.395456e-010
1900	64748442 1280 1079174 1162016 467.00027909 502.00021081 42 64 594 10947 5040157
1901	64749722 1272 1079175 1162017 467.00027914 502.00021086 42 64 594 10947 5040157
1902	64750994 1272 1079175 1162017 467.00027914 502.00021086 42 64 594 10947 5040157
1903	64752266 1272 1079176 1162018 467.00027914 502.00021086 42 46 576 10191 4659673
1904	64753538 1362 1074543 1162098 465.00046612 502.00023986 45 64 594 11672 5356512
1905	64754900 1371 1074544 1162099 465.00046617 502.00023991 45 64 594 11672 5356512
1906	64756271 1371 1074544 1162099 465.00046617 502.00023991 45 64 594 11672 5356512
1907	64757642 1371 1074545 1162100 465.00046617 502.00023991 45 46 576 10862 4950900
1914	64759013 273 1077439 1152191 467 498 12 112 1483 13481 18932113
1930	64759286 4878 1074197 1160578 465.00034578 499.00060812 158 101 536 65571 30367779
1931	64764164 5964 1074197 1160578 465.00034578 499.00060812 158 2.682e-005 1.00050884 2.0340622 2.0015559996572
1951	64770128 4346 1074280 1158709 465.00037564 499.0003298 141 110 896 61209 29590855
1952	64774474 5382 1074280 1158709 465.00037564 499.0003298 143 3.13e-005 1.0005293 3.0325019 3.0022140244732
1973	64779856 494 1075002 1155742 466 499 22 125 1493 17070 21694850
1982	64780350 493 1077912 1153504 467.00009642 498.00018418 16 28 576 7219 3673385
1983	64780843 493 1077921 1153505 467.00009642 498.00018418 16 46 594 7507 3938453
1984	64781336 493 1077921 1153505 467.00009642 498.00018418 16 64 594 7525 3940433
1985	64781829 923 1077921 1153505 467.00009642 498.00018418 32 0 1 16 16
1986	64782752 492 1077921 1153505 467.00009642 498.00018418 16 64 594 7525 3940433
1987	64783244 477 1077921 1153505 467.00009642 498.00018418 16 0 1.216e-005 2.176e-005 2.400256e-010
1991	64783721 492 1078236 1153859 467.00014458 498.00021874 16 64 594 7525 3940433
1992	64784213 495 1078241 1153861 467.00014463 498.00021879 16 64 594 7525 3940433
1993	64784708 495 1078241 1153861 467.00014463 498.00021879 16 64 594 7525 3940433
1994	64785203 495 1078246 1153862 467.00014463 498.00021879 16 46 576 7237 3674717
1995	64785698 690 1079022 1160635 467.00025759 499.00062065 23 28 40 908 35984
1996	64786388 690 1079023 1160636 467.00025759 499.00062065 23 46 58 1322 76124
1997	64787078 690 1079023 1160636 467.00025759 499.00062065 23 64 64 1472 94208
1998	64787768 1334 1079023 1160636 467.00025759 499.00062065 46 0 1 23 23
1999	64789102 690 1079023 1160636 467.00025759 499.00062065 23 64 64 1472 94208
2000	64789792 667 1079023 1160636 467.00025759 499.00062065 23 0 0 0 0
2007	64790459 1454 1076034 1156632 466.00019284 499.00011876 47 108 864 20536 10028720
2008	64791913 1818 1076034 1156632 466.00019284 499.00011876 48 6.804e-005 0.00065502 0.0136134 4.7585532952e-006
2009	64793731 690 1079051 1160672 467.00026335 499.00062641 23 64 64 1472 94208
2010	64794421 686 1079052 1160673 467.0002634 499.00062646 23 64 64 1472 94208
2011	64795107 686 1079052 1160673 467.0002634 499.00062646 23 64 64 1472 94208
2012	64795793 686 1079053 1160675 467.0002634 499.00062646 23 46 46 1058 48668
2025	64796479 2128 1074758 1160034 465.00054448 499.00052856 69 108 938 30274 14994230
2026	64798607 2676 1074758 1160034 465.00054448 499.00052856 71 6.324e-005 0.00056018 0.02175218 8.2428209612e-006
2030	64801283 1879 1075376 1160613 466.00007252 499.00061816 61 106 919 24438 11991190
2031	64803162 2480 1075376 1160613 466.00007252 499.00061816 66 5.62e-005 1.0006814 5.02269932 5.0053389911489
2051	64805642 616 1089683 1159415 472.00014554 499.00043962 20 40 576 8626 4305572
2052	64806258 616 1089686 1159416 472.00014554 499.00043962 20 58 594 8986 4622588
2053	64806874 616 1089686 1159416 472.00014554 499.00043962 20 64 594 8992 4623320
2054	64807490 1154 1089686 1159416 472.00014554 499.00043962 40 0 2 22 24
2055	64808644 616 1089686 1159416 472.00014554 499.00043962 20 64 594 8992 4623320
2056	64809260 611 1089686 1159416 472.00014554 499.00043962 20 0 9.152e-005 0.00017776 1.18607232e-008
2064	64809871 616 1089847 1159561 472.0001937 499.00047418 20 64 594 8992 4623320
2065	64810487 619 1089849 1159562 472.00019375 499.00047423 20 64 594 8992 4623320
2066	64811106 619 1089849 1159562 472.00019375 499.00047423 20 64 594 8992 4623320
2067	64811725 619 1089853 1159563 472.00019375 499.00047423 20 46 576 8632 4306088
2068	64812344 450 1074848 1154520 465.00058245 498.00033135 15 40 40 600 24000
2069	64812794 450 1074849 1154521 465.00058245 498.00033135 15 58 58 870 50460
2070	64813244 450 1074849 1154521 465.00058245 498.00033135 15 64 64 960 61440
2071	64813694 870 1074849 1154521 465.00058245 498.00033135 30 0 1 15 15
2072	64814564 450 1074849 1154521 465.00058245 498.00033135 15 64 64 960 61440
2073	64815014 435 1074849 1154521 465.00058245 498.00033135 15 0 0 0 0
2074	64815449 450 1074857 1154550 465.00058821 498.00033711 15 64 64 960 61440
2075	64815899 444 1074858 1154551 465.00058826 498.00033716 15 64 64 960 61440
2076	64816343 444 1074858 1154551 465.00058826 498.00033716 15 64 64 960 61440
2077	64816787 444 1074859 1154552 465.00058826 498.00033716 15 46 46 690 31740
2084	64817231 1328 1076633 1159251 466.00031012 499.0004062 43 103 536 17741 8242005
2085	64818559 1624 1076633 1159251 466.00031012 499.0004062 43 5.428e-005 0.00056812 0.01239798 4.3719178636e-006
2106	64820183 831 1081395 1160072 468.00019284 499.00053094 27 106 536 10581 4777171
2107	64821014 1014 1081395 1160072 468.00019284 499.00053094 27 5.524e-005 0.000531 0.007746 3.0521721512e-006
2118	64822028 2834 1076032 1160836 466.00019284 499.00064918 92 107 960 39697 19451151
2119	64824862 3536 1076032 1160836 466.00019284 499.00064918 94 5.556e-005 0.00064918 0.0260881 8.98907779e-006
2181	64828398 431 1077442 1155747 467 499 19 107 1493 19935 27554883
2182	64828829 449 1080280 1155738 468 499 20 103 1498 15649 19957659
2183	64829278 406 1082806 1155753 469 499 18 124 1475 16013 21202483
2184	64829684 406 1080279 1155740 468 499 18 137 1491 16436 21543474
2185	64830090 403 1075010 1155754 466 499 18 154 1498 12602 15339440
2186	64830493 451 1082804 1155757 469 499 20 108 1490 17687 23582097
2187	64830944 405 1074993 1152194 466 498 18 101 1494 15139 19448983
2188	64831349 338 1080278 1148876 468 497 15 109 1494 13030 17043082
2189	64831687 363 1074990 1155745 466 499 16 178 1497 17121 23528015
2190	64832050 494 1075004 1155760 466 499 22 126 1490 16944 21578974
2191	64832544 339 1074999 1155731 466 499 15 145 1496 14420 19540988
2192	64832883 474 1074994 1148878 466 497 21 105 1490 19165 25569185
2193	64833357 381 1080277 1155750 468 499 17 107 1495 12164 15387088
2194	64833738 292 1074997 1148865 466 497 13 116 1492 9874 12641182
2195	64834030 317 1074991 1155729 466 499 14 123 1487 14004 19123164
2196	64834347 401 1086615 1155756 471 499 18 104 1498 10069 11173335
2197	64834748 426 1075009 1155752 466 499 19 106 1495 13585 17315391
2198	64835174 313 1074998 1146025 466 496 14 124 1490 9130 11167286
2251	64835487 4616 1075527 1161123 466.00009642 500.00003226 150 107 956 62474 29289848
2252	64840103 5670 1075527 1161123 466.00009642 500.00003226 151 3.05e-005 1.00003226 1.02976746 1.000072798006
2281	64845773 705 1075398 1146503 466.00007508 496.00009012 23 124 931 9130 4459782
2282	64846478 896 1075398 1146503 466.00007508 496.00009012 24 6.1e-005 0.00054476 0.00605058 2.0511911924e-006
2420	64847374 427 1077441 1152188 467 498 19 129 1495 15015 19248541
2421	64847801 382 1080282 1155733 468 499 17 168 1483 13737 17474413
2422	64848183 338 1080286 1155734 468 499 15 111 1498 12678 17099360
2423	64848521 408 1077447 1155735 467 499 18 110 1496 18348 25048638
2424	64848929 568 1075000 1155759 466 499 25 124 1498 27507 37935725
2425	64849497 382 1075011 1152195 466 498 17 111 1467 13346 16727840
2441	64849879 61 1153105 1153138 498.00012906 498.00013578 2 64 395 459 160121
2478	64849940 1012 1075708 1152874 466.00013684 498.000093 33 111 536 13346 6059296
2479	64850952 1232 1075708 1152874 466.00013684 498.000093 33 7.508e-005 0.00057174 0.00954964 3.5337345016e-006
2488	64852184 407 1075006 1155755 466 499 18 128 1481 17353 23055415
2489	64852591 407 1077440 1155739 467 499 18 135 1491 17493 23367369
2510	64852998 454 1074992 1152200 466 498 20 142 1499 21590 30152140
2535	64853452 272 1080283 1155749 468 499 12 134 1497 12330 16795482
2538	64853724 21 1156054 1156054 499 499 1 64 64 64 4096
2567	64853745 472 1077443 1155761 467 499 21 105 1488 16629 21472833
2582	64854217 29 1102629 1102629 478.0002133 478.0002133 1 64 64 64 4096
2585	64854246 30 1136450 1136450 491.00031007 491.00031007 1 64 64 64 4096
2594	64854276 22 1134614 1134614 491 491 1 400 400 400 160000
2607	64854298 85 1156045 1156064 499 499 4 64 193 385 49537
2609	64854383 145 1099738 1150726 477.00021608 497.00025994 5 64 594 1991 950045
2612	64854528 60 1156766 1156769 499.00013186 499.00013186 2 64 64 128 8192
2619	64854588 61 1125654 1144032 487.00015716 495.00002698 2 64 423 487 183025
2623	64854649 124 1078914 1129038 467.00023589 488.00028773 4 399 594 2026 1057594
2627	64854773 150 1157667 1158081 499.00022065 499.00026327 5 64 64 320 20480
2631	64854923 91 1136677 1157099 491.00034601 499.00016973 3 64 594 722 361028
2632	64855014 66 1119346 1122408 485 486 3 463 594 1526 787166
2644	64855080 21 1156055 1156055 499 499 1 64 64 64 4096
2660	64855101 21 1149086 1149086 497 497 1 64 64 64 4096
2663	64855122 238 1121550 1148448 485.00038528 496.00046084 8 28 28 224 6272
2665	64855360 22 1122411 1122411 486 486 1 404 404 404 163216
2680	64855382 31 1105492 1105492 479.00023815 479.00023815 1 594 594 594 352836
2731	64855413 31 1153865 1153865 498.00021879 498.00021879 1 424 424 424 179776

