file 21635189 1611892642                                        
version 2
run Traffic_1-0-20210128-22:57:19-18176
attr configname Traffic_1
attr datetime 20210128-22:57:19
attr experiment Traffic_1
attr inifile _XHostSpineLeaf/XHost_SpineLeaf.ini
attr iterationvars ""
attr iterationvarsf ""
attr measurement ""
attr network XHost_SpineLeaf_Network
attr processid 18176
attr repetition 0
attr replication #0
attr resultdir results
attr runnumber 0
attr seedset 0
param **.borderLeaf.**.packetCapacity 1
param **.leaf[*].**.packetCapacity 1
param **.spine[*].**.packetCapacity 1
param **.H[*].numApps 1
param **.border.numApps 1
param **.H[*].app[0].typename "\"TcpSessionApp\""
param **.H[*].app[0].connectAddress "\"border\""
param **.H[*].app[0].tOpen 1.0s
param **.H[*].app[0].tSend 1.1s
param **.H[*].app[0].sendBytes 100000B
param **.H[*].app[0].tClose 0s
param **.border.app[0].typename "\"TcpEchoApp\""
param **.LanVisualizer.interfaceTableVisualizer.displayInterfaceTables true
param **.LanVisualizer.interfaceTableVisualizer.displayWiredInterfacesAtConnections false
param **.LanVisualizer.interfaceTableVisualizer.nodeFilter "\"not (*topOfRack or *H*)\""
param **.LanVisualizer.interfaceTableVisualizer.placementPriority 2
param **.LanVisualizer.interfaceTableVisualizer.format "\"%N %\\\\%n/%l%\\\\%m\""
param **.LanVisualizer.packetDropVisualizer.displayPacketDrops true
param **.LanVisualizer.packetDropVisualizer.labelFormat "\"%n/reason: %r\""
param **.LanVisualizer.packetDropVisualizer.fadeOutTime 10s
param **.LeafVisualizer.interfaceTableVisualizer.displayInterfaceTables true
param **.LeafVisualizer.interfaceTableVisualizer.displayWiredInterfacesAtConnections false
param **.LeafVisualizer.interfaceTableVisualizer.placementPriority 2
param **.LeafVisualizer.interfaceTableVisualizer.format "\"%N %\\\\%n/%l%\\\\%m\""
param **.configurator.config "xmldoc(\"../../OMNeT-INET-SpineLeafResearch/Spine-Leaf-ManualDCN/_XHostSpineLeaf/XHost_SpineLeaf_Routing.xml\")"

vector 0 XHost_SpineLeaf_Network.leaf[0].H[0].tcp.conn-17 tcpRcvQueueBytes:vector ETV
attr interpolationmode sample-hold
vector 1 XHost_SpineLeaf_Network.leaf[0].H[0].tcp.conn-17 rcvAdv:vector ETV
attr interpolationmode sample-hold
vector 2 XHost_SpineLeaf_Network.leaf[0].H[0].tcp.conn-17 rcvWnd:vector ETV
attr interpolationmode sample-hold
vector 3 XHost_SpineLeaf_Network.leaf[0].H[0].tcp.conn-17 sndAck:vector ETV
attr interpolationmode sample-hold
vector 4 XHost_SpineLeaf_Network.leaf[0].H[1].tcp.conn-18 tcpRcvQueueBytes:vector ETV
attr interpolationmode sample-hold
vector 5 XHost_SpineLeaf_Network.leaf[0].H[1].tcp.conn-18 rcvAdv:vector ETV
attr interpolationmode sample-hold
vector 6 XHost_SpineLeaf_Network.leaf[0].H[1].tcp.conn-18 rcvWnd:vector ETV
attr interpolationmode sample-hold
vector 7 XHost_SpineLeaf_Network.leaf[0].H[1].tcp.conn-18 sndAck:vector ETV
attr interpolationmode sample-hold
vector 8 XHost_SpineLeaf_Network.leaf[1].H[0].tcp.conn-19 tcpRcvQueueBytes:vector ETV
attr interpolationmode sample-hold
vector 9 XHost_SpineLeaf_Network.leaf[1].H[0].tcp.conn-19 rcvAdv:vector ETV
attr interpolationmode sample-hold
vector 10 XHost_SpineLeaf_Network.leaf[1].H[0].tcp.conn-19 rcvWnd:vector ETV
attr interpolationmode sample-hold
vector 11 XHost_SpineLeaf_Network.leaf[1].H[0].tcp.conn-19 sndAck:vector ETV
attr interpolationmode sample-hold
vector 12 XHost_SpineLeaf_Network.leaf[1].H[1].tcp.conn-20 tcpRcvQueueBytes:vector ETV
attr interpolationmode sample-hold
vector 13 XHost_SpineLeaf_Network.leaf[1].H[1].tcp.conn-20 rcvAdv:vector ETV
attr interpolationmode sample-hold
vector 14 XHost_SpineLeaf_Network.leaf[1].H[1].tcp.conn-20 rcvWnd:vector ETV
attr interpolationmode sample-hold
vector 15 XHost_SpineLeaf_Network.leaf[1].H[1].tcp.conn-20 sndAck:vector ETV
attr interpolationmode sample-hold
vector 16 XHost_SpineLeaf_Network.leaf[2].H[0].tcp.conn-21 tcpRcvQueueBytes:vector ETV
attr interpolationmode sample-hold
vector 17 XHost_SpineLeaf_Network.leaf[2].H[0].tcp.conn-21 rcvAdv:vector ETV
attr interpolationmode sample-hold
vector 18 XHost_SpineLeaf_Network.leaf[2].H[0].tcp.conn-21 rcvWnd:vector ETV
attr interpolationmode sample-hold
vector 19 XHost_SpineLeaf_Network.leaf[2].H[0].tcp.conn-21 sndAck:vector ETV
attr interpolationmode sample-hold
vector 20 XHost_SpineLeaf_Network.leaf[2].H[1].tcp.conn-22 tcpRcvQueueBytes:vector ETV
attr interpolationmode sample-hold
vector 21 XHost_SpineLeaf_Network.leaf[2].H[1].tcp.conn-22 rcvAdv:vector ETV
attr interpolationmode sample-hold
vector 22 XHost_SpineLeaf_Network.leaf[2].H[1].tcp.conn-22 rcvWnd:vector ETV
attr interpolationmode sample-hold
vector 23 XHost_SpineLeaf_Network.leaf[2].H[1].tcp.conn-22 sndAck:vector ETV
attr interpolationmode sample-hold
vector 24 XHost_SpineLeaf_Network.leaf[3].H[0].tcp.conn-23 tcpRcvQueueBytes:vector ETV
attr interpolationmode sample-hold
vector 25 XHost_SpineLeaf_Network.leaf[3].H[0].tcp.conn-23 rcvAdv:vector ETV
attr interpolationmode sample-hold
vector 26 XHost_SpineLeaf_Network.leaf[3].H[0].tcp.conn-23 rcvWnd:vector ETV
attr interpolationmode sample-hold
vector 27 XHost_SpineLeaf_Network.leaf[3].H[0].tcp.conn-23 sndAck:vector ETV
attr interpolationmode sample-hold
vector 28 XHost_SpineLeaf_Network.leaf[3].H[1].tcp.conn-24 tcpRcvQueueBytes:vector ETV
attr interpolationmode sample-hold
vector 29 XHost_SpineLeaf_Network.leaf[3].H[1].tcp.conn-24 rcvAdv:vector ETV
attr interpolationmode sample-hold
vector 30 XHost_SpineLeaf_Network.leaf[3].H[1].tcp.conn-24 rcvWnd:vector ETV
attr interpolationmode sample-hold
vector 31 XHost_SpineLeaf_Network.leaf[3].H[1].tcp.conn-24 sndAck:vector ETV
attr interpolationmode sample-hold
vector 32 XHost_SpineLeaf_Network.leaf[4].H[0].tcp.conn-25 tcpRcvQueueBytes:vector ETV
attr interpolationmode sample-hold
vector 33 XHost_SpineLeaf_Network.leaf[4].H[0].tcp.conn-25 rcvAdv:vector ETV
attr interpolationmode sample-hold
vector 34 XHost_SpineLeaf_Network.leaf[4].H[0].tcp.conn-25 rcvWnd:vector ETV
attr interpolationmode sample-hold
vector 35 XHost_SpineLeaf_Network.leaf[4].H[0].tcp.conn-25 sndAck:vector ETV
attr interpolationmode sample-hold
vector 36 XHost_SpineLeaf_Network.leaf[4].H[1].tcp.conn-26 tcpRcvQueueBytes:vector ETV
attr interpolationmode sample-hold
vector 37 XHost_SpineLeaf_Network.leaf[4].H[1].tcp.conn-26 rcvAdv:vector ETV
attr interpolationmode sample-hold
vector 38 XHost_SpineLeaf_Network.leaf[4].H[1].tcp.conn-26 rcvWnd:vector ETV
attr interpolationmode sample-hold
vector 39 XHost_SpineLeaf_Network.leaf[4].H[1].tcp.conn-26 sndAck:vector ETV
attr interpolationmode sample-hold
vector 40 XHost_SpineLeaf_Network.leaf[5].H[0].tcp.conn-27 tcpRcvQueueBytes:vector ETV
attr interpolationmode sample-hold
vector 41 XHost_SpineLeaf_Network.leaf[5].H[0].tcp.conn-27 rcvAdv:vector ETV
attr interpolationmode sample-hold
vector 42 XHost_SpineLeaf_Network.leaf[5].H[0].tcp.conn-27 rcvWnd:vector ETV
attr interpolationmode sample-hold
vector 43 XHost_SpineLeaf_Network.leaf[5].H[0].tcp.conn-27 sndAck:vector ETV
attr interpolationmode sample-hold
vector 44 XHost_SpineLeaf_Network.leaf[5].H[1].tcp.conn-28 tcpRcvQueueBytes:vector ETV
attr interpolationmode sample-hold
vector 45 XHost_SpineLeaf_Network.leaf[5].H[1].tcp.conn-28 rcvAdv:vector ETV
attr interpolationmode sample-hold
vector 46 XHost_SpineLeaf_Network.leaf[5].H[1].tcp.conn-28 rcvWnd:vector ETV
attr interpolationmode sample-hold
vector 47 XHost_SpineLeaf_Network.leaf[5].H[1].tcp.conn-28 sndAck:vector ETV
attr interpolationmode sample-hold
vector 48 XHost_SpineLeaf_Network.leaf[6].H[0].tcp.conn-29 tcpRcvQueueBytes:vector ETV
attr interpolationmode sample-hold
vector 49 XHost_SpineLeaf_Network.leaf[6].H[0].tcp.conn-29 rcvAdv:vector ETV
attr interpolationmode sample-hold
vector 50 XHost_SpineLeaf_Network.leaf[6].H[0].tcp.conn-29 rcvWnd:vector ETV
attr interpolationmode sample-hold
vector 51 XHost_SpineLeaf_Network.leaf[6].H[0].tcp.conn-29 sndAck:vector ETV
attr interpolationmode sample-hold
vector 52 XHost_SpineLeaf_Network.leaf[6].H[1].tcp.conn-30 tcpRcvQueueBytes:vector ETV
attr interpolationmode sample-hold
vector 53 XHost_SpineLeaf_Network.leaf[6].H[1].tcp.conn-30 rcvAdv:vector ETV
attr interpolationmode sample-hold
vector 54 XHost_SpineLeaf_Network.leaf[6].H[1].tcp.conn-30 rcvWnd:vector ETV
attr interpolationmode sample-hold
vector 55 XHost_SpineLeaf_Network.leaf[6].H[1].tcp.conn-30 sndAck:vector ETV
attr interpolationmode sample-hold
vector 56 XHost_SpineLeaf_Network.leaf[7].H[0].tcp.conn-31 tcpRcvQueueBytes:vector ETV
attr interpolationmode sample-hold
vector 57 XHost_SpineLeaf_Network.leaf[7].H[0].tcp.conn-31 rcvAdv:vector ETV
attr interpolationmode sample-hold
vector 58 XHost_SpineLeaf_Network.leaf[7].H[0].tcp.conn-31 rcvWnd:vector ETV
attr interpolationmode sample-hold
vector 59 XHost_SpineLeaf_Network.leaf[7].H[0].tcp.conn-31 sndAck:vector ETV
attr interpolationmode sample-hold
vector 60 XHost_SpineLeaf_Network.leaf[7].H[1].tcp.conn-32 tcpRcvQueueBytes:vector ETV
attr interpolationmode sample-hold
vector 61 XHost_SpineLeaf_Network.leaf[7].H[1].tcp.conn-32 rcvAdv:vector ETV
attr interpolationmode sample-hold
vector 62 XHost_SpineLeaf_Network.leaf[7].H[1].tcp.conn-32 rcvWnd:vector ETV
attr interpolationmode sample-hold
vector 63 XHost_SpineLeaf_Network.leaf[7].H[1].tcp.conn-32 sndAck:vector ETV
attr interpolationmode sample-hold
vector 64 XHost_SpineLeaf_Network.leaf[0].H[0].ipv4.arp arpRequestSent:vector(packetBytes) ETV
attr source arpRequestSent
attr title "ARP request sent, vector(packetBytes)"
vector 65 XHost_SpineLeaf_Network.leaf[0].H[1].ipv4.arp arpRequestSent:vector(packetBytes) ETV
attr source arpRequestSent
attr title "ARP request sent, vector(packetBytes)"
vector 66 XHost_SpineLeaf_Network.leaf[1].H[0].ipv4.arp arpRequestSent:vector(packetBytes) ETV
attr source arpRequestSent
attr title "ARP request sent, vector(packetBytes)"
vector 67 XHost_SpineLeaf_Network.leaf[1].H[1].ipv4.arp arpRequestSent:vector(packetBytes) ETV
attr source arpRequestSent
attr title "ARP request sent, vector(packetBytes)"
vector 68 XHost_SpineLeaf_Network.leaf[2].H[0].ipv4.arp arpRequestSent:vector(packetBytes) ETV
attr source arpRequestSent
attr title "ARP request sent, vector(packetBytes)"
vector 69 XHost_SpineLeaf_Network.leaf[2].H[1].ipv4.arp arpRequestSent:vector(packetBytes) ETV
attr source arpRequestSent
attr title "ARP request sent, vector(packetBytes)"
vector 70 XHost_SpineLeaf_Network.leaf[3].H[0].ipv4.arp arpRequestSent:vector(packetBytes) ETV
attr source arpRequestSent
attr title "ARP request sent, vector(packetBytes)"
vector 71 XHost_SpineLeaf_Network.leaf[3].H[1].ipv4.arp arpRequestSent:vector(packetBytes) ETV
attr source arpRequestSent
attr title "ARP request sent, vector(packetBytes)"
vector 72 XHost_SpineLeaf_Network.leaf[4].H[0].ipv4.arp arpRequestSent:vector(packetBytes) ETV
attr source arpRequestSent
attr title "ARP request sent, vector(packetBytes)"
vector 73 XHost_SpineLeaf_Network.leaf[4].H[1].ipv4.arp arpRequestSent:vector(packetBytes) ETV
attr source arpRequestSent
attr title "ARP request sent, vector(packetBytes)"
vector 74 XHost_SpineLeaf_Network.leaf[5].H[0].ipv4.arp arpRequestSent:vector(packetBytes) ETV
attr source arpRequestSent
attr title "ARP request sent, vector(packetBytes)"
vector 75 XHost_SpineLeaf_Network.leaf[5].H[1].ipv4.arp arpRequestSent:vector(packetBytes) ETV
attr source arpRequestSent
attr title "ARP request sent, vector(packetBytes)"
vector 76 XHost_SpineLeaf_Network.leaf[6].H[0].ipv4.arp arpRequestSent:vector(packetBytes) ETV
attr source arpRequestSent
attr title "ARP request sent, vector(packetBytes)"
vector 77 XHost_SpineLeaf_Network.leaf[6].H[1].ipv4.arp arpRequestSent:vector(packetBytes) ETV
attr source arpRequestSent
attr title "ARP request sent, vector(packetBytes)"
vector 78 XHost_SpineLeaf_Network.leaf[7].H[0].ipv4.arp arpRequestSent:vector(packetBytes) ETV
attr source arpRequestSent
attr title "ARP request sent, vector(packetBytes)"
vector 79 XHost_SpineLeaf_Network.leaf[7].H[1].ipv4.arp arpRequestSent:vector(packetBytes) ETV
attr source arpRequestSent
attr title "ARP request sent, vector(packetBytes)"
vector 80 XHost_SpineLeaf_Network.leaf[0].H[0].eth[0].encap encapPk:vector(packetBytes) ETV
attr interpolationmode none
attr source encapPk
attr title "packets encapsulated, vector(packetBytes)"
vector 81 XHost_SpineLeaf_Network.leaf[0].H[1].eth[0].encap encapPk:vector(packetBytes) ETV
attr interpolationmode none
attr source encapPk
attr title "packets encapsulated, vector(packetBytes)"
vector 82 XHost_SpineLeaf_Network.leaf[1].H[0].eth[0].encap encapPk:vector(packetBytes) ETV
attr interpolationmode none
attr source encapPk
attr title "packets encapsulated, vector(packetBytes)"
vector 83 XHost_SpineLeaf_Network.leaf[1].H[1].eth[0].encap encapPk:vector(packetBytes) ETV
attr interpolationmode none
attr source encapPk
attr title "packets encapsulated, vector(packetBytes)"
vector 84 XHost_SpineLeaf_Network.leaf[2].H[0].eth[0].encap encapPk:vector(packetBytes) ETV
attr interpolationmode none
attr source encapPk
attr title "packets encapsulated, vector(packetBytes)"
vector 85 XHost_SpineLeaf_Network.leaf[2].H[1].eth[0].encap encapPk:vector(packetBytes) ETV
attr interpolationmode none
attr source encapPk
attr title "packets encapsulated, vector(packetBytes)"
vector 86 XHost_SpineLeaf_Network.leaf[3].H[0].eth[0].encap encapPk:vector(packetBytes) ETV
attr interpolationmode none
attr source encapPk
attr title "packets encapsulated, vector(packetBytes)"
vector 87 XHost_SpineLeaf_Network.leaf[3].H[1].eth[0].encap encapPk:vector(packetBytes) ETV
attr interpolationmode none
attr source encapPk
attr title "packets encapsulated, vector(packetBytes)"
vector 88 XHost_SpineLeaf_Network.leaf[4].H[0].eth[0].encap encapPk:vector(packetBytes) ETV
attr interpolationmode none
attr source encapPk
attr title "packets encapsulated, vector(packetBytes)"
vector 89 XHost_SpineLeaf_Network.leaf[4].H[1].eth[0].encap encapPk:vector(packetBytes) ETV
attr interpolationmode none
attr source encapPk
attr title "packets encapsulated, vector(packetBytes)"
vector 90 XHost_SpineLeaf_Network.leaf[5].H[0].eth[0].encap encapPk:vector(packetBytes) ETV
attr interpolationmode none
attr source encapPk
attr title "packets encapsulated, vector(packetBytes)"
vector 91 XHost_SpineLeaf_Network.leaf[5].H[1].eth[0].encap encapPk:vector(packetBytes) ETV
attr interpolationmode none
attr source encapPk
attr title "packets encapsulated, vector(packetBytes)"
vector 92 XHost_SpineLeaf_Network.leaf[6].H[0].eth[0].encap encapPk:vector(packetBytes) ETV
attr interpolationmode none
attr source encapPk
attr title "packets encapsulated, vector(packetBytes)"
vector 93 XHost_SpineLeaf_Network.leaf[6].H[1].eth[0].encap encapPk:vector(packetBytes) ETV
attr interpolationmode none
attr source encapPk
attr title "packets encapsulated, vector(packetBytes)"
vector 94 XHost_SpineLeaf_Network.leaf[7].H[0].eth[0].encap encapPk:vector(packetBytes) ETV
attr interpolationmode none
attr source encapPk
attr title "packets encapsulated, vector(packetBytes)"
vector 95 XHost_SpineLeaf_Network.leaf[7].H[1].eth[0].encap encapPk:vector(packetBytes) ETV
attr interpolationmode none
attr source encapPk
attr title "packets encapsulated, vector(packetBytes)"
vector 96 XHost_SpineLeaf_Network.leaf[0].H[0].eth[0].mac packetReceivedFromUpper:vector(packetBytes) ETV
attr interpolationmode none
attr source packetReceivedFromUpper
attr title "packet bytes from higher layer, vector(packetBytes)"
vector 97 XHost_SpineLeaf_Network.leaf[0].H[0].eth[0].mac.queue packetPushed:vector(packetBytes) ETV
attr interpolationmode none
attr title "packet pushed, vector(packetBytes)"
vector 98 XHost_SpineLeaf_Network.leaf[0].H[0].eth[0].mac.queue queueLength:vector ETV
attr interpolationmode sample-hold
attr source "count(packetPushed) - count(packetPopped) - count(packetRemoved) - count(packetDropped)"
attr title "queue length, vector"
vector 99 XHost_SpineLeaf_Network.leaf[0].H[0].eth[0].mac.queue packetPopped:vector(packetBytes) ETV
attr interpolationmode none
attr title "packet popped, vector(packetBytes)"
vector 100 XHost_SpineLeaf_Network.leaf[0].H[0].eth[0].mac.queue queueingTime:vector ETV
attr interpolationmode none
attr source queueingTime(packetPopped)
attr title "queueing times, vector"
attr unit s
vector 101 XHost_SpineLeaf_Network.leaf[0].H[1].eth[0].mac packetReceivedFromUpper:vector(packetBytes) ETV
attr interpolationmode none
attr source packetReceivedFromUpper
attr title "packet bytes from higher layer, vector(packetBytes)"
vector 102 XHost_SpineLeaf_Network.leaf[0].H[1].eth[0].mac.queue packetPushed:vector(packetBytes) ETV
attr interpolationmode none
attr title "packet pushed, vector(packetBytes)"
vector 103 XHost_SpineLeaf_Network.leaf[0].H[1].eth[0].mac.queue queueLength:vector ETV
attr interpolationmode sample-hold
attr source "count(packetPushed) - count(packetPopped) - count(packetRemoved) - count(packetDropped)"
attr title "queue length, vector"
vector 104 XHost_SpineLeaf_Network.leaf[0].H[1].eth[0].mac.queue packetPopped:vector(packetBytes) ETV
attr interpolationmode none
attr title "packet popped, vector(packetBytes)"
vector 105 XHost_SpineLeaf_Network.leaf[0].H[1].eth[0].mac.queue queueingTime:vector ETV
attr interpolationmode none
attr source queueingTime(packetPopped)
attr title "queueing times, vector"
attr unit s
vector 106 XHost_SpineLeaf_Network.leaf[1].H[0].eth[0].mac packetReceivedFromUpper:vector(packetBytes) ETV
attr interpolationmode none
attr source packetReceivedFromUpper
attr title "packet bytes from higher layer, vector(packetBytes)"
vector 107 XHost_SpineLeaf_Network.leaf[1].H[0].eth[0].mac.queue packetPushed:vector(packetBytes) ETV
attr interpolationmode none
attr title "packet pushed, vector(packetBytes)"
vector 108 XHost_SpineLeaf_Network.leaf[1].H[0].eth[0].mac.queue queueLength:vector ETV
attr interpolationmode sample-hold
attr source "count(packetPushed) - count(packetPopped) - count(packetRemoved) - count(packetDropped)"
attr title "queue length, vector"
vector 109 XHost_SpineLeaf_Network.leaf[1].H[0].eth[0].mac.queue packetPopped:vector(packetBytes) ETV
attr interpolationmode none
attr title "packet popped, vector(packetBytes)"
vector 110 XHost_SpineLeaf_Network.leaf[1].H[0].eth[0].mac.queue queueingTime:vector ETV
attr interpolationmode none
attr source queueingTime(packetPopped)
attr title "queueing times, vector"
attr unit s
vector 111 XHost_SpineLeaf_Network.leaf[1].H[1].eth[0].mac packetReceivedFromUpper:vector(packetBytes) ETV
attr interpolationmode none
attr source packetReceivedFromUpper
attr title "packet bytes from higher layer, vector(packetBytes)"
vector 112 XHost_SpineLeaf_Network.leaf[1].H[1].eth[0].mac.queue packetPushed:vector(packetBytes) ETV
attr interpolationmode none
attr title "packet pushed, vector(packetBytes)"
vector 113 XHost_SpineLeaf_Network.leaf[1].H[1].eth[0].mac.queue queueLength:vector ETV
attr interpolationmode sample-hold
attr source "count(packetPushed) - count(packetPopped) - count(packetRemoved) - count(packetDropped)"
attr title "queue length, vector"
vector 114 XHost_SpineLeaf_Network.leaf[1].H[1].eth[0].mac.queue packetPopped:vector(packetBytes) ETV
attr interpolationmode none
attr title "packet popped, vector(packetBytes)"
vector 115 XHost_SpineLeaf_Network.leaf[1].H[1].eth[0].mac.queue queueingTime:vector ETV
attr interpolationmode none
attr source queueingTime(packetPopped)
attr title "queueing times, vector"
attr unit s
vector 116 XHost_SpineLeaf_Network.leaf[2].H[0].eth[0].mac packetReceivedFromUpper:vector(packetBytes) ETV
attr interpolationmode none
attr source packetReceivedFromUpper
attr title "packet bytes from higher layer, vector(packetBytes)"
vector 117 XHost_SpineLeaf_Network.leaf[2].H[0].eth[0].mac.queue packetPushed:vector(packetBytes) ETV
attr interpolationmode none
attr title "packet pushed, vector(packetBytes)"
vector 118 XHost_SpineLeaf_Network.leaf[2].H[0].eth[0].mac.queue queueLength:vector ETV
attr interpolationmode sample-hold
attr source "count(packetPushed) - count(packetPopped) - count(packetRemoved) - count(packetDropped)"
attr title "queue length, vector"
vector 119 XHost_SpineLeaf_Network.leaf[2].H[0].eth[0].mac.queue packetPopped:vector(packetBytes) ETV
attr interpolationmode none
attr title "packet popped, vector(packetBytes)"
vector 120 XHost_SpineLeaf_Network.leaf[2].H[0].eth[0].mac.queue queueingTime:vector ETV
attr interpolationmode none
attr source queueingTime(packetPopped)
attr title "queueing times, vector"
attr unit s
vector 121 XHost_SpineLeaf_Network.leaf[2].H[1].eth[0].mac packetReceivedFromUpper:vector(packetBytes) ETV
attr interpolationmode none
attr source packetReceivedFromUpper
attr title "packet bytes from higher layer, vector(packetBytes)"
vector 122 XHost_SpineLeaf_Network.leaf[2].H[1].eth[0].mac.queue packetPushed:vector(packetBytes) ETV
attr interpolationmode none
attr title "packet pushed, vector(packetBytes)"
vector 123 XHost_SpineLeaf_Network.leaf[2].H[1].eth[0].mac.queue queueLength:vector ETV
attr interpolationmode sample-hold
attr source "count(packetPushed) - count(packetPopped) - count(packetRemoved) - count(packetDropped)"
attr title "queue length, vector"
vector 124 XHost_SpineLeaf_Network.leaf[2].H[1].eth[0].mac.queue packetPopped:vector(packetBytes) ETV
attr interpolationmode none
attr title "packet popped, vector(packetBytes)"
vector 125 XHost_SpineLeaf_Network.leaf[2].H[1].eth[0].mac.queue queueingTime:vector ETV
attr interpolationmode none
attr source queueingTime(packetPopped)
attr title "queueing times, vector"
attr unit s
vector 126 XHost_SpineLeaf_Network.leaf[3].H[0].eth[0].mac packetReceivedFromUpper:vector(packetBytes) ETV
attr interpolationmode none
attr source packetReceivedFromUpper
attr title "packet bytes from higher layer, vector(packetBytes)"
vector 127 XHost_SpineLeaf_Network.leaf[3].H[0].eth[0].mac.queue packetPushed:vector(packetBytes) ETV
attr interpolationmode none
attr title "packet pushed, vector(packetBytes)"
vector 128 XHost_SpineLeaf_Network.leaf[3].H[0].eth[0].mac.queue queueLength:vector ETV
attr interpolationmode sample-hold
attr source "count(packetPushed) - count(packetPopped) - count(packetRemoved) - count(packetDropped)"
attr title "queue length, vector"
vector 129 XHost_SpineLeaf_Network.leaf[3].H[0].eth[0].mac.queue packetPopped:vector(packetBytes) ETV
attr interpolationmode none
attr title "packet popped, vector(packetBytes)"
vector 130 XHost_SpineLeaf_Network.leaf[3].H[0].eth[0].mac.queue queueingTime:vector ETV
attr interpolationmode none
attr source queueingTime(packetPopped)
attr title "queueing times, vector"
attr unit s
vector 131 XHost_SpineLeaf_Network.leaf[3].H[1].eth[0].mac packetReceivedFromUpper:vector(packetBytes) ETV
attr interpolationmode none
attr source packetReceivedFromUpper
attr title "packet bytes from higher layer, vector(packetBytes)"
vector 132 XHost_SpineLeaf_Network.leaf[3].H[1].eth[0].mac.queue packetPushed:vector(packetBytes) ETV
attr interpolationmode none
attr title "packet pushed, vector(packetBytes)"
vector 133 XHost_SpineLeaf_Network.leaf[3].H[1].eth[0].mac.queue queueLength:vector ETV
attr interpolationmode sample-hold
attr source "count(packetPushed) - count(packetPopped) - count(packetRemoved) - count(packetDropped)"
attr title "queue length, vector"
vector 134 XHost_SpineLeaf_Network.leaf[3].H[1].eth[0].mac.queue packetPopped:vector(packetBytes) ETV
attr interpolationmode none
attr title "packet popped, vector(packetBytes)"
vector 135 XHost_SpineLeaf_Network.leaf[3].H[1].eth[0].mac.queue queueingTime:vector ETV
attr interpolationmode none
attr source queueingTime(packetPopped)
attr title "queueing times, vector"
attr unit s
vector 136 XHost_SpineLeaf_Network.leaf[4].H[0].eth[0].mac packetReceivedFromUpper:vector(packetBytes) ETV
attr interpolationmode none
attr source packetReceivedFromUpper
attr title "packet bytes from higher layer, vector(packetBytes)"
vector 137 XHost_SpineLeaf_Network.leaf[4].H[0].eth[0].mac.queue packetPushed:vector(packetBytes) ETV
attr interpolationmode none
attr title "packet pushed, vector(packetBytes)"
vector 138 XHost_SpineLeaf_Network.leaf[4].H[0].eth[0].mac.queue queueLength:vector ETV
attr interpolationmode sample-hold
attr source "count(packetPushed) - count(packetPopped) - count(packetRemoved) - count(packetDropped)"
attr title "queue length, vector"
vector 139 XHost_SpineLeaf_Network.leaf[4].H[0].eth[0].mac.queue packetPopped:vector(packetBytes) ETV
attr interpolationmode none
attr title "packet popped, vector(packetBytes)"
vector 140 XHost_SpineLeaf_Network.leaf[4].H[0].eth[0].mac.queue queueingTime:vector ETV
attr interpolationmode none
attr source queueingTime(packetPopped)
attr title "queueing times, vector"
attr unit s
vector 141 XHost_SpineLeaf_Network.leaf[4].H[1].eth[0].mac packetReceivedFromUpper:vector(packetBytes) ETV
attr interpolationmode none
attr source packetReceivedFromUpper
attr title "packet bytes from higher layer, vector(packetBytes)"
vector 142 XHost_SpineLeaf_Network.leaf[4].H[1].eth[0].mac.queue packetPushed:vector(packetBytes) ETV
attr interpolationmode none
attr title "packet pushed, vector(packetBytes)"
vector 143 XHost_SpineLeaf_Network.leaf[4].H[1].eth[0].mac.queue queueLength:vector ETV
attr interpolationmode sample-hold
attr source "count(packetPushed) - count(packetPopped) - count(packetRemoved) - count(packetDropped)"
attr title "queue length, vector"
vector 144 XHost_SpineLeaf_Network.leaf[4].H[1].eth[0].mac.queue packetPopped:vector(packetBytes) ETV
attr interpolationmode none
attr title "packet popped, vector(packetBytes)"
vector 145 XHost_SpineLeaf_Network.leaf[4].H[1].eth[0].mac.queue queueingTime:vector ETV
attr interpolationmode none
attr source queueingTime(packetPopped)
attr title "queueing times, vector"
attr unit s
vector 146 XHost_SpineLeaf_Network.leaf[5].H[0].eth[0].mac packetReceivedFromUpper:vector(packetBytes) ETV
attr interpolationmode none
attr source packetReceivedFromUpper
attr title "packet bytes from higher layer, vector(packetBytes)"
vector 147 XHost_SpineLeaf_Network.leaf[5].H[0].eth[0].mac.queue packetPushed:vector(packetBytes) ETV
attr interpolationmode none
attr title "packet pushed, vector(packetBytes)"
vector 148 XHost_SpineLeaf_Network.leaf[5].H[0].eth[0].mac.queue queueLength:vector ETV
attr interpolationmode sample-hold
attr source "count(packetPushed) - count(packetPopped) - count(packetRemoved) - count(packetDropped)"
attr title "queue length, vector"
vector 149 XHost_SpineLeaf_Network.leaf[5].H[0].eth[0].mac.queue packetPopped:vector(packetBytes) ETV
attr interpolationmode none
attr title "packet popped, vector(packetBytes)"
vector 150 XHost_SpineLeaf_Network.leaf[5].H[0].eth[0].mac.queue queueingTime:vector ETV
attr interpolationmode none
attr source queueingTime(packetPopped)
attr title "queueing times, vector"
attr unit s
vector 151 XHost_SpineLeaf_Network.leaf[5].H[1].eth[0].mac packetReceivedFromUpper:vector(packetBytes) ETV
attr interpolationmode none
attr source packetReceivedFromUpper
attr title "packet bytes from higher layer, vector(packetBytes)"
vector 152 XHost_SpineLeaf_Network.leaf[5].H[1].eth[0].mac.queue packetPushed:vector(packetBytes) ETV
attr interpolationmode none
attr title "packet pushed, vector(packetBytes)"
vector 153 XHost_SpineLeaf_Network.leaf[5].H[1].eth[0].mac.queue queueLength:vector ETV
attr interpolationmode sample-hold
attr source "count(packetPushed) - count(packetPopped) - count(packetRemoved) - count(packetDropped)"
attr title "queue length, vector"
vector 154 XHost_SpineLeaf_Network.leaf[5].H[1].eth[0].mac.queue packetPopped:vector(packetBytes) ETV
attr interpolationmode none
attr title "packet popped, vector(packetBytes)"
vector 155 XHost_SpineLeaf_Network.leaf[5].H[1].eth[0].mac.queue queueingTime:vector ETV
attr interpolationmode none
attr source queueingTime(packetPopped)
attr title "queueing times, vector"
attr unit s
vector 156 XHost_SpineLeaf_Network.leaf[6].H[0].eth[0].mac packetReceivedFromUpper:vector(packetBytes) ETV
attr interpolationmode none
attr source packetReceivedFromUpper
attr title "packet bytes from higher layer, vector(packetBytes)"
vector 157 XHost_SpineLeaf_Network.leaf[6].H[0].eth[0].mac.queue packetPushed:vector(packetBytes) ETV
attr interpolationmode none
attr title "packet pushed, vector(packetBytes)"
vector 158 XHost_SpineLeaf_Network.leaf[6].H[0].eth[0].mac.queue queueLength:vector ETV
attr interpolationmode sample-hold
attr source "count(packetPushed) - count(packetPopped) - count(packetRemoved) - count(packetDropped)"
attr title "queue length, vector"
vector 159 XHost_SpineLeaf_Network.leaf[6].H[0].eth[0].mac.queue packetPopped:vector(packetBytes) ETV
attr interpolationmode none
attr title "packet popped, vector(packetBytes)"
vector 160 XHost_SpineLeaf_Network.leaf[6].H[0].eth[0].mac.queue queueingTime:vector ETV
attr interpolationmode none
attr source queueingTime(packetPopped)
attr title "queueing times, vector"
attr unit s
vector 161 XHost_SpineLeaf_Network.leaf[6].H[1].eth[0].mac packetReceivedFromUpper:vector(packetBytes) ETV
attr interpolationmode none
attr source packetReceivedFromUpper
attr title "packet bytes from higher layer, vector(packetBytes)"
vector 162 XHost_SpineLeaf_Network.leaf[6].H[1].eth[0].mac.queue packetPushed:vector(packetBytes) ETV
attr interpolationmode none
attr title "packet pushed, vector(packetBytes)"
vector 163 XHost_SpineLeaf_Network.leaf[6].H[1].eth[0].mac.queue queueLength:vector ETV
attr interpolationmode sample-hold
attr source "count(packetPushed) - count(packetPopped) - count(packetRemoved) - count(packetDropped)"
attr title "queue length, vector"
vector 164 XHost_SpineLeaf_Network.leaf[6].H[1].eth[0].mac.queue packetPopped:vector(packetBytes) ETV
attr interpolationmode none
attr title "packet popped, vector(packetBytes)"
vector 165 XHost_SpineLeaf_Network.leaf[6].H[1].eth[0].mac.queue queueingTime:vector ETV
attr interpolationmode none
attr source queueingTime(packetPopped)
attr title "queueing times, vector"
attr unit s
vector 166 XHost_SpineLeaf_Network.leaf[7].H[0].eth[0].mac packetReceivedFromUpper:vector(packetBytes) ETV
attr interpolationmode none
attr source packetReceivedFromUpper
attr title "packet bytes from higher layer, vector(packetBytes)"
vector 167 XHost_SpineLeaf_Network.leaf[7].H[0].eth[0].mac.queue packetPushed:vector(packetBytes) ETV
attr interpolationmode none
attr title "packet pushed, vector(packetBytes)"
vector 168 XHost_SpineLeaf_Network.leaf[7].H[0].eth[0].mac.queue queueLength:vector ETV
attr interpolationmode sample-hold
attr source "count(packetPushed) - count(packetPopped) - count(packetRemoved) - count(packetDropped)"
attr title "queue length, vector"
vector 169 XHost_SpineLeaf_Network.leaf[7].H[0].eth[0].mac.queue packetPopped:vector(packetBytes) ETV
attr interpolationmode none
attr title "packet popped, vector(packetBytes)"
vector 170 XHost_SpineLeaf_Network.leaf[7].H[0].eth[0].mac.queue queueingTime:vector ETV
attr interpolationmode none
attr source queueingTime(packetPopped)
attr title "queueing times, vector"
attr unit s
vector 171 XHost_SpineLeaf_Network.leaf[7].H[1].eth[0].mac packetReceivedFromUpper:vector(packetBytes) ETV
attr interpolationmode none
attr source packetReceivedFromUpper
attr title "packet bytes from higher layer, vector(packetBytes)"
vector 172 XHost_SpineLeaf_Network.leaf[7].H[1].eth[0].mac.queue packetPushed:vector(packetBytes) ETV
attr interpolationmode none
attr title "packet pushed, vector(packetBytes)"
vector 173 XHost_SpineLeaf_Network.leaf[7].H[1].eth[0].mac.queue queueLength:vector ETV
attr interpolationmode sample-hold
attr source "count(packetPushed) - count(packetPopped) - count(packetRemoved) - count(packetDropped)"
attr title "queue length, vector"
vector 174 XHost_SpineLeaf_Network.leaf[7].H[1].eth[0].mac.queue packetPopped:vector(packetBytes) ETV
attr interpolationmode none
attr title "packet popped, vector(packetBytes)"
vector 175 XHost_SpineLeaf_Network.leaf[7].H[1].eth[0].mac.queue queueingTime:vector ETV
attr interpolationmode none
attr source queueingTime(packetPopped)
attr title "queueing times, vector"
attr unit s
vector 176 XHost_SpineLeaf_Network.leaf[0].H[0].eth[0].mac txPk:vector(packetBytes) ETV
attr interpolationmode none
attr source packetSentToLower
attr title "packets transmitted, vector(packetBytes)"
vector 177 XHost_SpineLeaf_Network.leaf[0].H[1].eth[0].mac txPk:vector(packetBytes) ETV
attr interpolationmode none
attr source packetSentToLower
attr title "packets transmitted, vector(packetBytes)"
vector 178 XHost_SpineLeaf_Network.leaf[1].H[0].eth[0].mac txPk:vector(packetBytes) ETV
attr interpolationmode none
attr source packetSentToLower
attr title "packets transmitted, vector(packetBytes)"
vector 179 XHost_SpineLeaf_Network.leaf[1].H[1].eth[0].mac txPk:vector(packetBytes) ETV
attr interpolationmode none
attr source packetSentToLower
attr title "packets transmitted, vector(packetBytes)"
vector 180 XHost_SpineLeaf_Network.leaf[2].H[0].eth[0].mac txPk:vector(packetBytes) ETV
attr interpolationmode none
attr source packetSentToLower
attr title "packets transmitted, vector(packetBytes)"
vector 181 XHost_SpineLeaf_Network.leaf[2].H[1].eth[0].mac txPk:vector(packetBytes) ETV
attr interpolationmode none
attr source packetSentToLower
attr title "packets transmitted, vector(packetBytes)"
vector 182 XHost_SpineLeaf_Network.leaf[3].H[0].eth[0].mac txPk:vector(packetBytes) ETV
attr interpolationmode none
attr source packetSentToLower
attr title "packets transmitted, vector(packetBytes)"
vector 183 XHost_SpineLeaf_Network.leaf[3].H[1].eth[0].mac txPk:vector(packetBytes) ETV
attr interpolationmode none
attr source packetSentToLower
attr title "packets transmitted, vector(packetBytes)"
vector 184 XHost_SpineLeaf_Network.leaf[4].H[0].eth[0].mac txPk:vector(packetBytes) ETV
attr interpolationmode none
attr source packetSentToLower
attr title "packets transmitted, vector(packetBytes)"
vector 185 XHost_SpineLeaf_Network.leaf[4].H[1].eth[0].mac txPk:vector(packetBytes) ETV
attr interpolationmode none
attr source packetSentToLower
attr title "packets transmitted, vector(packetBytes)"
vector 186 XHost_SpineLeaf_Network.leaf[5].H[0].eth[0].mac txPk:vector(packetBytes) ETV
attr interpolationmode none
attr source packetSentToLower
attr title "packets transmitted, vector(packetBytes)"
vector 187 XHost_SpineLeaf_Network.leaf[5].H[1].eth[0].mac txPk:vector(packetBytes) ETV
attr interpolationmode none
attr source packetSentToLower
attr title "packets transmitted, vector(packetBytes)"
vector 188 XHost_SpineLeaf_Network.leaf[6].H[0].eth[0].mac txPk:vector(packetBytes) ETV
attr interpolationmode none
attr source packetSentToLower
attr title "packets transmitted, vector(packetBytes)"
vector 189 XHost_SpineLeaf_Network.leaf[6].H[1].eth[0].mac txPk:vector(packetBytes) ETV
attr interpolationmode none
attr source packetSentToLower
attr title "packets transmitted, vector(packetBytes)"
vector 190 XHost_SpineLeaf_Network.leaf[7].H[0].eth[0].mac txPk:vector(packetBytes) ETV
attr interpolationmode none
attr source packetSentToLower
attr title "packets transmitted, vector(packetBytes)"
vector 191 XHost_SpineLeaf_Network.leaf[7].H[1].eth[0].mac txPk:vector(packetBytes) ETV
attr interpolationmode none
attr source packetSentToLower
attr title "packets transmitted, vector(packetBytes)"
vector 192 XHost_SpineLeaf_Network.leaf[0].topOfRack.eth[5].mac rxPkOk:vector(packetBytes) ETV
attr interpolationmode none
attr source rxPkOk
attr title "packets received OK, vector(packetBytes)"
vector 193 XHost_SpineLeaf_Network.leaf[0].topOfRack.eth[5].mac passedUpPk:vector(packetBytes) ETV
attr interpolationmode none
attr source packetSentToUpper
attr title "packets passed to higher layer, vector(packetBytes)"
vector 194 XHost_SpineLeaf_Network.leaf[0].topOfRack.eth[6].mac rxPkOk:vector(packetBytes) ETV
attr interpolationmode none
attr source rxPkOk
attr title "packets received OK, vector(packetBytes)"
vector 195 XHost_SpineLeaf_Network.leaf[0].topOfRack.eth[6].mac passedUpPk:vector(packetBytes) ETV
attr interpolationmode none
attr source packetSentToUpper
attr title "packets passed to higher layer, vector(packetBytes)"
vector 196 XHost_SpineLeaf_Network.leaf[1].topOfRack.eth[5].mac rxPkOk:vector(packetBytes) ETV
attr interpolationmode none
attr source rxPkOk
attr title "packets received OK, vector(packetBytes)"
vector 197 XHost_SpineLeaf_Network.leaf[1].topOfRack.eth[5].mac passedUpPk:vector(packetBytes) ETV
attr interpolationmode none
attr source packetSentToUpper
attr title "packets passed to higher layer, vector(packetBytes)"
vector 198 XHost_SpineLeaf_Network.leaf[1].topOfRack.eth[6].mac rxPkOk:vector(packetBytes) ETV
attr interpolationmode none
attr source rxPkOk
attr title "packets received OK, vector(packetBytes)"
vector 199 XHost_SpineLeaf_Network.leaf[1].topOfRack.eth[6].mac passedUpPk:vector(packetBytes) ETV
attr interpolationmode none
attr source packetSentToUpper
attr title "packets passed to higher layer, vector(packetBytes)"
vector 200 XHost_SpineLeaf_Network.leaf[2].topOfRack.eth[5].mac rxPkOk:vector(packetBytes) ETV
attr interpolationmode none
attr source rxPkOk
attr title "packets received OK, vector(packetBytes)"
vector 201 XHost_SpineLeaf_Network.leaf[2].topOfRack.eth[5].mac passedUpPk:vector(packetBytes) ETV
attr interpolationmode none
attr source packetSentToUpper
attr title "packets passed to higher layer, vector(packetBytes)"
vector 202 XHost_SpineLeaf_Network.leaf[2].topOfRack.eth[6].mac rxPkOk:vector(packetBytes) ETV
attr interpolationmode none
attr source rxPkOk
attr title "packets received OK, vector(packetBytes)"
vector 203 XHost_SpineLeaf_Network.leaf[2].topOfRack.eth[6].mac passedUpPk:vector(packetBytes) ETV
attr interpolationmode none
attr source packetSentToUpper
attr title "packets passed to higher layer, vector(packetBytes)"
vector 204 XHost_SpineLeaf_Network.leaf[3].topOfRack.eth[5].mac rxPkOk:vector(packetBytes) ETV
attr interpolationmode none
attr source rxPkOk
attr title "packets received OK, vector(packetBytes)"
vector 205 XHost_SpineLeaf_Network.leaf[3].topOfRack.eth[5].mac passedUpPk:vector(packetBytes) ETV
attr interpolationmode none
attr source packetSentToUpper
attr title "packets passed to higher layer, vector(packetBytes)"
vector 206 XHost_SpineLeaf_Network.leaf[3].topOfRack.eth[6].mac rxPkOk:vector(packetBytes) ETV
attr interpolationmode none
attr source rxPkOk
attr title "packets received OK, vector(packetBytes)"
vector 207 XHost_SpineLeaf_Network.leaf[3].topOfRack.eth[6].mac passedUpPk:vector(packetBytes) ETV
attr interpolationmode none
attr source packetSentToUpper
attr title "packets passed to higher layer, vector(packetBytes)"
vector 208 XHost_SpineLeaf_Network.leaf[4].topOfRack.eth[5].mac rxPkOk:vector(packetBytes) ETV
attr interpolationmode none
attr source rxPkOk
attr title "packets received OK, vector(packetBytes)"
vector 209 XHost_SpineLeaf_Network.leaf[4].topOfRack.eth[5].mac passedUpPk:vector(packetBytes) ETV
attr interpolationmode none
attr source packetSentToUpper
attr title "packets passed to higher layer, vector(packetBytes)"
vector 210 XHost_SpineLeaf_Network.leaf[4].topOfRack.eth[6].mac rxPkOk:vector(packetBytes) ETV
attr interpolationmode none
attr source rxPkOk
attr title "packets received OK, vector(packetBytes)"
vector 211 XHost_SpineLeaf_Network.leaf[4].topOfRack.eth[6].mac passedUpPk:vector(packetBytes) ETV
attr interpolationmode none
attr source packetSentToUpper
attr title "packets passed to higher layer, vector(packetBytes)"
vector 212 XHost_SpineLeaf_Network.leaf[5].topOfRack.eth[5].mac rxPkOk:vector(packetBytes) ETV
attr interpolationmode none
attr source rxPkOk
attr title "packets received OK, vector(packetBytes)"
vector 213 XHost_SpineLeaf_Network.leaf[5].topOfRack.eth[5].mac passedUpPk:vector(packetBytes) ETV
attr interpolationmode none
attr source packetSentToUpper
attr title "packets passed to higher layer, vector(packetBytes)"
vector 214 XHost_SpineLeaf_Network.leaf[5].topOfRack.eth[6].mac rxPkOk:vector(packetBytes) ETV
attr interpolationmode none
attr source rxPkOk
attr title "packets received OK, vector(packetBytes)"
vector 215 XHost_SpineLeaf_Network.leaf[5].topOfRack.eth[6].mac passedUpPk:vector(packetBytes) ETV
attr interpolationmode none
attr source packetSentToUpper
attr title "packets passed to higher layer, vector(packetBytes)"
vector 216 XHost_SpineLeaf_Network.leaf[6].topOfRack.eth[5].mac rxPkOk:vector(packetBytes) ETV
attr interpolationmode none
attr source rxPkOk
attr title "packets received OK, vector(packetBytes)"
vector 217 XHost_SpineLeaf_Network.leaf[6].topOfRack.eth[5].mac passedUpPk:vector(packetBytes) ETV
attr interpolationmode none
attr source packetSentToUpper
attr title "packets passed to higher layer, vector(packetBytes)"
vector 218 XHost_SpineLeaf_Network.leaf[6].topOfRack.eth[6].mac rxPkOk:vector(packetBytes) ETV
attr interpolationmode none
attr source rxPkOk
attr title "packets received OK, vector(packetBytes)"
vector 219 XHost_SpineLeaf_Network.leaf[6].topOfRack.eth[6].mac passedUpPk:vector(packetBytes) ETV
attr interpolationmode none
attr source packetSentToUpper
attr title "packets passed to higher layer, vector(packetBytes)"
vector 220 XHost_SpineLeaf_Network.leaf[7].topOfRack.eth[5].mac rxPkOk:vector(packetBytes) ETV
attr interpolationmode none
attr source rxPkOk
attr title "packets received OK, vector(packetBytes)"
vector 221 XHost_SpineLeaf_Network.leaf[7].topOfRack.eth[5].mac passedUpPk:vector(packetBytes) ETV
attr interpolationmode none
attr source packetSentToUpper
attr title "packets passed to higher layer, vector(packetBytes)"
vector 222 XHost_SpineLeaf_Network.leaf[7].topOfRack.eth[6].mac rxPkOk:vector(packetBytes) ETV
attr interpolationmode none
attr source rxPkOk
attr title "packets received OK, vector(packetBytes)"
vector 223 XHost_SpineLeaf_Network.leaf[7].topOfRack.eth[6].mac passedUpPk:vector(packetBytes) ETV
attr interpolationmode none
attr source packetSentToUpper
attr title "packets passed to higher layer, vector(packetBytes)"
vector 224 XHost_SpineLeaf_Network.leaf[0].topOfRack.eth[5].encap decapPk:vector(packetBytes) ETV
attr interpolationmode none
attr source decapPk
attr title "packets decapsulated, vector(packetBytes)"
vector 225 XHost_SpineLeaf_Network.leaf[0].topOfRack.eth[6].encap decapPk:vector(packetBytes) ETV
attr interpolationmode none
attr source decapPk
attr title "packets decapsulated, vector(packetBytes)"
vector 226 XHost_SpineLeaf_Network.leaf[1].topOfRack.eth[5].encap decapPk:vector(packetBytes) ETV
attr interpolationmode none
attr source decapPk
attr title "packets decapsulated, vector(packetBytes)"
vector 227 XHost_SpineLeaf_Network.leaf[1].topOfRack.eth[6].encap decapPk:vector(packetBytes) ETV
attr interpolationmode none
attr source decapPk
attr title "packets decapsulated, vector(packetBytes)"
vector 228 XHost_SpineLeaf_Network.leaf[2].topOfRack.eth[5].encap decapPk:vector(packetBytes) ETV
attr interpolationmode none
attr source decapPk
attr title "packets decapsulated, vector(packetBytes)"
vector 229 XHost_SpineLeaf_Network.leaf[2].topOfRack.eth[6].encap decapPk:vector(packetBytes) ETV
attr interpolationmode none
attr source decapPk
attr title "packets decapsulated, vector(packetBytes)"
vector 230 XHost_SpineLeaf_Network.leaf[3].topOfRack.eth[5].encap decapPk:vector(packetBytes) ETV
attr interpolationmode none
attr source decapPk
attr title "packets decapsulated, vector(packetBytes)"
vector 231 XHost_SpineLeaf_Network.leaf[3].topOfRack.eth[6].encap decapPk:vector(packetBytes) ETV
attr interpolationmode none
attr source decapPk
attr title "packets decapsulated, vector(packetBytes)"
vector 232 XHost_SpineLeaf_Network.leaf[4].topOfRack.eth[5].encap decapPk:vector(packetBytes) ETV
attr interpolationmode none
attr source decapPk
attr title "packets decapsulated, vector(packetBytes)"
vector 233 XHost_SpineLeaf_Network.leaf[4].topOfRack.eth[6].encap decapPk:vector(packetBytes) ETV
attr interpolationmode none
attr source decapPk
attr title "packets decapsulated, vector(packetBytes)"
vector 234 XHost_SpineLeaf_Network.leaf[5].topOfRack.eth[5].encap decapPk:vector(packetBytes) ETV
attr interpolationmode none
attr source decapPk
attr title "packets decapsulated, vector(packetBytes)"
vector 235 XHost_SpineLeaf_Network.leaf[5].topOfRack.eth[6].encap decapPk:vector(packetBytes) ETV
attr interpolationmode none
attr source decapPk
attr title "packets decapsulated, vector(packetBytes)"
vector 236 XHost_SpineLeaf_Network.leaf[6].topOfRack.eth[5].encap decapPk:vector(packetBytes) ETV
attr interpolationmode none
attr source decapPk
attr title "packets decapsulated, vector(packetBytes)"
vector 237 XHost_SpineLeaf_Network.leaf[6].topOfRack.eth[6].encap decapPk:vector(packetBytes) ETV
attr interpolationmode none
attr source decapPk
attr title "packets decapsulated, vector(packetBytes)"
vector 238 XHost_SpineLeaf_Network.leaf[7].topOfRack.eth[5].encap decapPk:vector(packetBytes) ETV
attr interpolationmode none
attr source decapPk
attr title "packets decapsulated, vector(packetBytes)"
vector 239 XHost_SpineLeaf_Network.leaf[7].topOfRack.eth[6].encap decapPk:vector(packetBytes) ETV
attr interpolationmode none
attr source decapPk
attr title "packets decapsulated, vector(packetBytes)"
vector 240 XHost_SpineLeaf_Network.leaf[0].topOfRack.ipv4.arp arpReplySent:vector(packetBytes) ETV
attr source arpReplySent
attr title "ARP replies sent, vector(packetBytes)"
vector 241 XHost_SpineLeaf_Network.leaf[1].topOfRack.ipv4.arp arpReplySent:vector(packetBytes) ETV
attr source arpReplySent
attr title "ARP replies sent, vector(packetBytes)"
vector 242 XHost_SpineLeaf_Network.leaf[2].topOfRack.ipv4.arp arpReplySent:vector(packetBytes) ETV
attr source arpReplySent
attr title "ARP replies sent, vector(packetBytes)"
vector 243 XHost_SpineLeaf_Network.leaf[3].topOfRack.ipv4.arp arpReplySent:vector(packetBytes) ETV
attr source arpReplySent
attr title "ARP replies sent, vector(packetBytes)"
vector 244 XHost_SpineLeaf_Network.leaf[4].topOfRack.ipv4.arp arpReplySent:vector(packetBytes) ETV
attr source arpReplySent
attr title "ARP replies sent, vector(packetBytes)"
vector 245 XHost_SpineLeaf_Network.leaf[5].topOfRack.ipv4.arp arpReplySent:vector(packetBytes) ETV
attr source arpReplySent
attr title "ARP replies sent, vector(packetBytes)"
vector 246 XHost_SpineLeaf_Network.leaf[6].topOfRack.ipv4.arp arpReplySent:vector(packetBytes) ETV
attr source arpReplySent
attr title "ARP replies sent, vector(packetBytes)"
vector 247 XHost_SpineLeaf_Network.leaf[7].topOfRack.ipv4.arp arpReplySent:vector(packetBytes) ETV
attr source arpReplySent
attr title "ARP replies sent, vector(packetBytes)"
vector 248 XHost_SpineLeaf_Network.leaf[0].topOfRack.eth[5].encap encapPk:vector(packetBytes) ETV
attr interpolationmode none
attr source encapPk
attr title "packets encapsulated, vector(packetBytes)"
vector 249 XHost_SpineLeaf_Network.leaf[0].topOfRack.eth[6].encap encapPk:vector(packetBytes) ETV
attr interpolationmode none
attr source encapPk
attr title "packets encapsulated, vector(packetBytes)"
vector 250 XHost_SpineLeaf_Network.leaf[1].topOfRack.eth[5].encap encapPk:vector(packetBytes) ETV
attr interpolationmode none
attr source encapPk
attr title "packets encapsulated, vector(packetBytes)"
vector 251 XHost_SpineLeaf_Network.leaf[1].topOfRack.eth[6].encap encapPk:vector(packetBytes) ETV
attr interpolationmode none
attr source encapPk
attr title "packets encapsulated, vector(packetBytes)"
vector 252 XHost_SpineLeaf_Network.leaf[2].topOfRack.eth[5].encap encapPk:vector(packetBytes) ETV
attr interpolationmode none
attr source encapPk
attr title "packets encapsulated, vector(packetBytes)"
vector 253 XHost_SpineLeaf_Network.leaf[2].topOfRack.eth[6].encap encapPk:vector(packetBytes) ETV
attr interpolationmode none
attr source encapPk
attr title "packets encapsulated, vector(packetBytes)"
vector 254 XHost_SpineLeaf_Network.leaf[3].topOfRack.eth[5].encap encapPk:vector(packetBytes) ETV
attr interpolationmode none
attr source encapPk
attr title "packets encapsulated, vector(packetBytes)"
vector 255 XHost_SpineLeaf_Network.leaf[3].topOfRack.eth[6].encap encapPk:vector(packetBytes) ETV
attr interpolationmode none
attr source encapPk
attr title "packets encapsulated, vector(packetBytes)"
vector 256 XHost_SpineLeaf_Network.leaf[4].topOfRack.eth[5].encap encapPk:vector(packetBytes) ETV
attr interpolationmode none
attr source encapPk
attr title "packets encapsulated, vector(packetBytes)"
vector 257 XHost_SpineLeaf_Network.leaf[4].topOfRack.eth[6].encap encapPk:vector(packetBytes) ETV
attr interpolationmode none
attr source encapPk
attr title "packets encapsulated, vector(packetBytes)"
vector 258 XHost_SpineLeaf_Network.leaf[5].topOfRack.eth[5].encap encapPk:vector(packetBytes) ETV
attr interpolationmode none
attr source encapPk
attr title "packets encapsulated, vector(packetBytes)"
vector 259 XHost_SpineLeaf_Network.leaf[5].topOfRack.eth[6].encap encapPk:vector(packetBytes) ETV
attr interpolationmode none
attr source encapPk
attr title "packets encapsulated, vector(packetBytes)"
vector 260 XHost_SpineLeaf_Network.leaf[6].topOfRack.eth[5].encap encapPk:vector(packetBytes) ETV
attr interpolationmode none
attr source encapPk
attr title "packets encapsulated, vector(packetBytes)"
vector 261 XHost_SpineLeaf_Network.leaf[6].topOfRack.eth[6].encap encapPk:vector(packetBytes) ETV
attr interpolationmode none
attr source encapPk
attr title "packets encapsulated, vector(packetBytes)"
vector 262 XHost_SpineLeaf_Network.leaf[7].topOfRack.eth[5].encap encapPk:vector(packetBytes) ETV
attr interpolationmode none
attr source encapPk
attr title "packets encapsulated, vector(packetBytes)"
vector 263 XHost_SpineLeaf_Network.leaf[7].topOfRack.eth[6].encap encapPk:vector(packetBytes) ETV
attr interpolationmode none
attr source encapPk
attr title "packets encapsulated, vector(packetBytes)"
vector 264 XHost_SpineLeaf_Network.leaf[0].topOfRack.eth[5].mac packetReceivedFromUpper:vector(packetBytes) ETV
attr interpolationmode none
attr source packetReceivedFromUpper
attr title "packet bytes from higher layer, vector(packetBytes)"
vector 265 XHost_SpineLeaf_Network.leaf[0].topOfRack.eth[5].mac.queue packetPushed:vector(packetBytes) ETV
attr interpolationmode none
attr title "packet pushed, vector(packetBytes)"
vector 266 XHost_SpineLeaf_Network.leaf[0].topOfRack.eth[5].mac.queue queueLength:vector ETV
attr interpolationmode sample-hold
attr source "count(packetPushed) - count(packetPopped) - count(packetRemoved) - count(packetDropped)"
attr title "queue length, vector"
vector 267 XHost_SpineLeaf_Network.leaf[0].topOfRack.eth[5].mac.queue packetPopped:vector(packetBytes) ETV
attr interpolationmode none
attr title "packet popped, vector(packetBytes)"
vector 268 XHost_SpineLeaf_Network.leaf[0].topOfRack.eth[5].mac.queue queueingTime:vector ETV
attr interpolationmode none
attr source queueingTime(packetPopped)
attr title "queueing times, vector"
attr unit s
vector 269 XHost_SpineLeaf_Network.leaf[0].topOfRack.eth[6].mac packetReceivedFromUpper:vector(packetBytes) ETV
attr interpolationmode none
attr source packetReceivedFromUpper
attr title "packet bytes from higher layer, vector(packetBytes)"
vector 270 XHost_SpineLeaf_Network.leaf[0].topOfRack.eth[6].mac.queue packetPushed:vector(packetBytes) ETV
attr interpolationmode none
attr title "packet pushed, vector(packetBytes)"
vector 271 XHost_SpineLeaf_Network.leaf[0].topOfRack.eth[6].mac.queue queueLength:vector ETV
attr interpolationmode sample-hold
attr source "count(packetPushed) - count(packetPopped) - count(packetRemoved) - count(packetDropped)"
attr title "queue length, vector"
vector 272 XHost_SpineLeaf_Network.leaf[0].topOfRack.eth[6].mac.queue packetPopped:vector(packetBytes) ETV
attr interpolationmode none
attr title "packet popped, vector(packetBytes)"
vector 273 XHost_SpineLeaf_Network.leaf[0].topOfRack.eth[6].mac.queue queueingTime:vector ETV
attr interpolationmode none
attr source queueingTime(packetPopped)
attr title "queueing times, vector"
attr unit s
vector 274 XHost_SpineLeaf_Network.leaf[1].topOfRack.eth[5].mac packetReceivedFromUpper:vector(packetBytes) ETV
attr interpolationmode none
attr source packetReceivedFromUpper
attr title "packet bytes from higher layer, vector(packetBytes)"
vector 275 XHost_SpineLeaf_Network.leaf[1].topOfRack.eth[5].mac.queue packetPushed:vector(packetBytes) ETV
attr interpolationmode none
attr title "packet pushed, vector(packetBytes)"
vector 276 XHost_SpineLeaf_Network.leaf[1].topOfRack.eth[5].mac.queue queueLength:vector ETV
attr interpolationmode sample-hold
attr source "count(packetPushed) - count(packetPopped) - count(packetRemoved) - count(packetDropped)"
attr title "queue length, vector"
vector 277 XHost_SpineLeaf_Network.leaf[1].topOfRack.eth[5].mac.queue packetPopped:vector(packetBytes) ETV
attr interpolationmode none
attr title "packet popped, vector(packetBytes)"
vector 278 XHost_SpineLeaf_Network.leaf[1].topOfRack.eth[5].mac.queue queueingTime:vector ETV
attr interpolationmode none
attr source queueingTime(packetPopped)
attr title "queueing times, vector"
attr unit s
vector 279 XHost_SpineLeaf_Network.leaf[1].topOfRack.eth[6].mac packetReceivedFromUpper:vector(packetBytes) ETV
attr interpolationmode none
attr source packetReceivedFromUpper
attr title "packet bytes from higher layer, vector(packetBytes)"
vector 280 XHost_SpineLeaf_Network.leaf[1].topOfRack.eth[6].mac.queue packetPushed:vector(packetBytes) ETV
attr interpolationmode none
attr title "packet pushed, vector(packetBytes)"
vector 281 XHost_SpineLeaf_Network.leaf[1].topOfRack.eth[6].mac.queue queueLength:vector ETV
attr interpolationmode sample-hold
attr source "count(packetPushed) - count(packetPopped) - count(packetRemoved) - count(packetDropped)"
attr title "queue length, vector"
vector 282 XHost_SpineLeaf_Network.leaf[1].topOfRack.eth[6].mac.queue packetPopped:vector(packetBytes) ETV
attr interpolationmode none
attr title "packet popped, vector(packetBytes)"
vector 283 XHost_SpineLeaf_Network.leaf[1].topOfRack.eth[6].mac.queue queueingTime:vector ETV
attr interpolationmode none
attr source queueingTime(packetPopped)
attr title "queueing times, vector"
attr unit s
vector 284 XHost_SpineLeaf_Network.leaf[2].topOfRack.eth[5].mac packetReceivedFromUpper:vector(packetBytes) ETV
attr interpolationmode none
attr source packetReceivedFromUpper
attr title "packet bytes from higher layer, vector(packetBytes)"
vector 285 XHost_SpineLeaf_Network.leaf[2].topOfRack.eth[5].mac.queue packetPushed:vector(packetBytes) ETV
attr interpolationmode none
attr title "packet pushed, vector(packetBytes)"
vector 286 XHost_SpineLeaf_Network.leaf[2].topOfRack.eth[5].mac.queue queueLength:vector ETV
attr interpolationmode sample-hold
attr source "count(packetPushed) - count(packetPopped) - count(packetRemoved) - count(packetDropped)"
attr title "queue length, vector"
vector 287 XHost_SpineLeaf_Network.leaf[2].topOfRack.eth[5].mac.queue packetPopped:vector(packetBytes) ETV
attr interpolationmode none
attr title "packet popped, vector(packetBytes)"
vector 288 XHost_SpineLeaf_Network.leaf[2].topOfRack.eth[5].mac.queue queueingTime:vector ETV
attr interpolationmode none
attr source queueingTime(packetPopped)
attr title "queueing times, vector"
attr unit s
vector 289 XHost_SpineLeaf_Network.leaf[2].topOfRack.eth[6].mac packetReceivedFromUpper:vector(packetBytes) ETV
attr interpolationmode none
attr source packetReceivedFromUpper
attr title "packet bytes from higher layer, vector(packetBytes)"
vector 290 XHost_SpineLeaf_Network.leaf[2].topOfRack.eth[6].mac.queue packetPushed:vector(packetBytes) ETV
attr interpolationmode none
attr title "packet pushed, vector(packetBytes)"
vector 291 XHost_SpineLeaf_Network.leaf[2].topOfRack.eth[6].mac.queue queueLength:vector ETV
attr interpolationmode sample-hold
attr source "count(packetPushed) - count(packetPopped) - count(packetRemoved) - count(packetDropped)"
attr title "queue length, vector"
vector 292 XHost_SpineLeaf_Network.leaf[2].topOfRack.eth[6].mac.queue packetPopped:vector(packetBytes) ETV
attr interpolationmode none
attr title "packet popped, vector(packetBytes)"
vector 293 XHost_SpineLeaf_Network.leaf[2].topOfRack.eth[6].mac.queue queueingTime:vector ETV
attr interpolationmode none
attr source queueingTime(packetPopped)
attr title "queueing times, vector"
attr unit s
vector 294 XHost_SpineLeaf_Network.leaf[3].topOfRack.eth[5].mac packetReceivedFromUpper:vector(packetBytes) ETV
attr interpolationmode none
attr source packetReceivedFromUpper
attr title "packet bytes from higher layer, vector(packetBytes)"
vector 295 XHost_SpineLeaf_Network.leaf[3].topOfRack.eth[5].mac.queue packetPushed:vector(packetBytes) ETV
attr interpolationmode none
attr title "packet pushed, vector(packetBytes)"
vector 296 XHost_SpineLeaf_Network.leaf[3].topOfRack.eth[5].mac.queue queueLength:vector ETV
attr interpolationmode sample-hold
attr source "count(packetPushed) - count(packetPopped) - count(packetRemoved) - count(packetDropped)"
attr title "queue length, vector"
vector 297 XHost_SpineLeaf_Network.leaf[3].topOfRack.eth[5].mac.queue packetPopped:vector(packetBytes) ETV
attr interpolationmode none
attr title "packet popped, vector(packetBytes)"
vector 298 XHost_SpineLeaf_Network.leaf[3].topOfRack.eth[5].mac.queue queueingTime:vector ETV
attr interpolationmode none
attr source queueingTime(packetPopped)
attr title "queueing times, vector"
attr unit s
vector 299 XHost_SpineLeaf_Network.leaf[3].topOfRack.eth[6].mac packetReceivedFromUpper:vector(packetBytes) ETV
attr interpolationmode none
attr source packetReceivedFromUpper
attr title "packet bytes from higher layer, vector(packetBytes)"
vector 300 XHost_SpineLeaf_Network.leaf[3].topOfRack.eth[6].mac.queue packetPushed:vector(packetBytes) ETV
attr interpolationmode none
attr title "packet pushed, vector(packetBytes)"
vector 301 XHost_SpineLeaf_Network.leaf[3].topOfRack.eth[6].mac.queue queueLength:vector ETV
attr interpolationmode sample-hold
attr source "count(packetPushed) - count(packetPopped) - count(packetRemoved) - count(packetDropped)"
attr title "queue length, vector"
vector 302 XHost_SpineLeaf_Network.leaf[3].topOfRack.eth[6].mac.queue packetPopped:vector(packetBytes) ETV
attr interpolationmode none
attr title "packet popped, vector(packetBytes)"
vector 303 XHost_SpineLeaf_Network.leaf[3].topOfRack.eth[6].mac.queue queueingTime:vector ETV
attr interpolationmode none
attr source queueingTime(packetPopped)
attr title "queueing times, vector"
attr unit s
vector 304 XHost_SpineLeaf_Network.leaf[4].topOfRack.eth[5].mac packetReceivedFromUpper:vector(packetBytes) ETV
attr interpolationmode none
attr source packetReceivedFromUpper
attr title "packet bytes from higher layer, vector(packetBytes)"
vector 305 XHost_SpineLeaf_Network.leaf[4].topOfRack.eth[5].mac.queue packetPushed:vector(packetBytes) ETV
attr interpolationmode none
attr title "packet pushed, vector(packetBytes)"
vector 306 XHost_SpineLeaf_Network.leaf[4].topOfRack.eth[5].mac.queue queueLength:vector ETV
attr interpolationmode sample-hold
attr source "count(packetPushed) - count(packetPopped) - count(packetRemoved) - count(packetDropped)"
attr title "queue length, vector"
vector 307 XHost_SpineLeaf_Network.leaf[4].topOfRack.eth[5].mac.queue packetPopped:vector(packetBytes) ETV
attr interpolationmode none
attr title "packet popped, vector(packetBytes)"
vector 308 XHost_SpineLeaf_Network.leaf[4].topOfRack.eth[5].mac.queue queueingTime:vector ETV
attr interpolationmode none
attr source queueingTime(packetPopped)
attr title "queueing times, vector"
attr unit s
vector 309 XHost_SpineLeaf_Network.leaf[4].topOfRack.eth[6].mac packetReceivedFromUpper:vector(packetBytes) ETV
attr interpolationmode none
attr source packetReceivedFromUpper
attr title "packet bytes from higher layer, vector(packetBytes)"
vector 310 XHost_SpineLeaf_Network.leaf[4].topOfRack.eth[6].mac.queue packetPushed:vector(packetBytes) ETV
attr interpolationmode none
attr title "packet pushed, vector(packetBytes)"
vector 311 XHost_SpineLeaf_Network.leaf[4].topOfRack.eth[6].mac.queue queueLength:vector ETV
attr interpolationmode sample-hold
attr source "count(packetPushed) - count(packetPopped) - count(packetRemoved) - count(packetDropped)"
attr title "queue length, vector"
vector 312 XHost_SpineLeaf_Network.leaf[4].topOfRack.eth[6].mac.queue packetPopped:vector(packetBytes) ETV
attr interpolationmode none
attr title "packet popped, vector(packetBytes)"
vector 313 XHost_SpineLeaf_Network.leaf[4].topOfRack.eth[6].mac.queue queueingTime:vector ETV
attr interpolationmode none
attr source queueingTime(packetPopped)
attr title "queueing times, vector"
attr unit s
vector 314 XHost_SpineLeaf_Network.leaf[5].topOfRack.eth[5].mac packetReceivedFromUpper:vector(packetBytes) ETV
attr interpolationmode none
attr source packetReceivedFromUpper
attr title "packet bytes from higher layer, vector(packetBytes)"
vector 315 XHost_SpineLeaf_Network.leaf[5].topOfRack.eth[5].mac.queue packetPushed:vector(packetBytes) ETV
attr interpolationmode none
attr title "packet pushed, vector(packetBytes)"
vector 316 XHost_SpineLeaf_Network.leaf[5].topOfRack.eth[5].mac.queue queueLength:vector ETV
attr interpolationmode sample-hold
attr source "count(packetPushed) - count(packetPopped) - count(packetRemoved) - count(packetDropped)"
attr title "queue length, vector"
vector 317 XHost_SpineLeaf_Network.leaf[5].topOfRack.eth[5].mac.queue packetPopped:vector(packetBytes) ETV
attr interpolationmode none
attr title "packet popped, vector(packetBytes)"
vector 318 XHost_SpineLeaf_Network.leaf[5].topOfRack.eth[5].mac.queue queueingTime:vector ETV
attr interpolationmode none
attr source queueingTime(packetPopped)
attr title "queueing times, vector"
attr unit s
vector 319 XHost_SpineLeaf_Network.leaf[5].topOfRack.eth[6].mac packetReceivedFromUpper:vector(packetBytes) ETV
attr interpolationmode none
attr source packetReceivedFromUpper
attr title "packet bytes from higher layer, vector(packetBytes)"
vector 320 XHost_SpineLeaf_Network.leaf[5].topOfRack.eth[6].mac.queue packetPushed:vector(packetBytes) ETV
attr interpolationmode none
attr title "packet pushed, vector(packetBytes)"
vector 321 XHost_SpineLeaf_Network.leaf[5].topOfRack.eth[6].mac.queue queueLength:vector ETV
attr interpolationmode sample-hold
attr source "count(packetPushed) - count(packetPopped) - count(packetRemoved) - count(packetDropped)"
attr title "queue length, vector"
vector 322 XHost_SpineLeaf_Network.leaf[5].topOfRack.eth[6].mac.queue packetPopped:vector(packetBytes) ETV
attr interpolationmode none
attr title "packet popped, vector(packetBytes)"
vector 323 XHost_SpineLeaf_Network.leaf[5].topOfRack.eth[6].mac.queue queueingTime:vector ETV
attr interpolationmode none
attr source queueingTime(packetPopped)
attr title "queueing times, vector"
attr unit s
vector 324 XHost_SpineLeaf_Network.leaf[6].topOfRack.eth[5].mac packetReceivedFromUpper:vector(packetBytes) ETV
attr interpolationmode none
attr source packetReceivedFromUpper
attr title "packet bytes from higher layer, vector(packetBytes)"
vector 325 XHost_SpineLeaf_Network.leaf[6].topOfRack.eth[5].mac.queue packetPushed:vector(packetBytes) ETV
attr interpolationmode none
attr title "packet pushed, vector(packetBytes)"
vector 326 XHost_SpineLeaf_Network.leaf[6].topOfRack.eth[5].mac.queue queueLength:vector ETV
attr interpolationmode sample-hold
attr source "count(packetPushed) - count(packetPopped) - count(packetRemoved) - count(packetDropped)"
attr title "queue length, vector"
vector 327 XHost_SpineLeaf_Network.leaf[6].topOfRack.eth[5].mac.queue packetPopped:vector(packetBytes) ETV
attr interpolationmode none
attr title "packet popped, vector(packetBytes)"
vector 328 XHost_SpineLeaf_Network.leaf[6].topOfRack.eth[5].mac.queue queueingTime:vector ETV
attr interpolationmode none
attr source queueingTime(packetPopped)
attr title "queueing times, vector"
attr unit s
vector 329 XHost_SpineLeaf_Network.leaf[6].topOfRack.eth[6].mac packetReceivedFromUpper:vector(packetBytes) ETV
attr interpolationmode none
attr source packetReceivedFromUpper
attr title "packet bytes from higher layer, vector(packetBytes)"
vector 330 XHost_SpineLeaf_Network.leaf[6].topOfRack.eth[6].mac.queue packetPushed:vector(packetBytes) ETV
attr interpolationmode none
attr title "packet pushed, vector(packetBytes)"
vector 331 XHost_SpineLeaf_Network.leaf[6].topOfRack.eth[6].mac.queue queueLength:vector ETV
attr interpolationmode sample-hold
attr source "count(packetPushed) - count(packetPopped) - count(packetRemoved) - count(packetDropped)"
attr title "queue length, vector"
vector 332 XHost_SpineLeaf_Network.leaf[6].topOfRack.eth[6].mac.queue packetPopped:vector(packetBytes) ETV
attr interpolationmode none
attr title "packet popped, vector(packetBytes)"
vector 333 XHost_SpineLeaf_Network.leaf[6].topOfRack.eth[6].mac.queue queueingTime:vector ETV
attr interpolationmode none
attr source queueingTime(packetPopped)
attr title "queueing times, vector"
attr unit s
vector 334 XHost_SpineLeaf_Network.leaf[7].topOfRack.eth[5].mac packetReceivedFromUpper:vector(packetBytes) ETV
attr interpolationmode none
attr source packetReceivedFromUpper
attr title "packet bytes from higher layer, vector(packetBytes)"
vector 335 XHost_SpineLeaf_Network.leaf[7].topOfRack.eth[5].mac.queue packetPushed:vector(packetBytes) ETV
attr interpolationmode none
attr title "packet pushed, vector(packetBytes)"
vector 336 XHost_SpineLeaf_Network.leaf[7].topOfRack.eth[5].mac.queue queueLength:vector ETV
attr interpolationmode sample-hold
attr source "count(packetPushed) - count(packetPopped) - count(packetRemoved) - count(packetDropped)"
attr title "queue length, vector"
vector 337 XHost_SpineLeaf_Network.leaf[7].topOfRack.eth[5].mac.queue packetPopped:vector(packetBytes) ETV
attr interpolationmode none
attr title "packet popped, vector(packetBytes)"
vector 338 XHost_SpineLeaf_Network.leaf[7].topOfRack.eth[5].mac.queue queueingTime:vector ETV
attr interpolationmode none
attr source queueingTime(packetPopped)
attr title "queueing times, vector"
attr unit s
vector 339 XHost_SpineLeaf_Network.leaf[7].topOfRack.eth[6].mac packetReceivedFromUpper:vector(packetBytes) ETV
attr interpolationmode none
attr source packetReceivedFromUpper
attr title "packet bytes from higher layer, vector(packetBytes)"
vector 340 XHost_SpineLeaf_Network.leaf[7].topOfRack.eth[6].mac.queue packetPushed:vector(packetBytes) ETV
attr interpolationmode none
attr title "packet pushed, vector(packetBytes)"
vector 341 XHost_SpineLeaf_Network.leaf[7].topOfRack.eth[6].mac.queue queueLength:vector ETV
attr interpolationmode sample-hold
attr source "count(packetPushed) - count(packetPopped) - count(packetRemoved) - count(packetDropped)"
attr title "queue length, vector"
vector 342 XHost_SpineLeaf_Network.leaf[7].topOfRack.eth[6].mac.queue packetPopped:vector(packetBytes) ETV
attr interpolationmode none
attr title "packet popped, vector(packetBytes)"
vector 343 XHost_SpineLeaf_Network.leaf[7].topOfRack.eth[6].mac.queue queueingTime:vector ETV
attr interpolationmode none
attr source queueingTime(packetPopped)
attr title "queueing times, vector"
attr unit s
vector 344 XHost_SpineLeaf_Network.leaf[0].topOfRack.eth[5].mac txPk:vector(packetBytes) ETV
attr interpolationmode none
attr source packetSentToLower
attr title "packets transmitted, vector(packetBytes)"
vector 345 XHost_SpineLeaf_Network.leaf[0].topOfRack.eth[6].mac txPk:vector(packetBytes) ETV
attr interpolationmode none
attr source packetSentToLower
attr title "packets transmitted, vector(packetBytes)"
vector 346 XHost_SpineLeaf_Network.leaf[1].topOfRack.eth[5].mac txPk:vector(packetBytes) ETV
attr interpolationmode none
attr source packetSentToLower
attr title "packets transmitted, vector(packetBytes)"
vector 347 XHost_SpineLeaf_Network.leaf[1].topOfRack.eth[6].mac txPk:vector(packetBytes) ETV
attr interpolationmode none
attr source packetSentToLower
attr title "packets transmitted, vector(packetBytes)"
vector 348 XHost_SpineLeaf_Network.leaf[2].topOfRack.eth[5].mac txPk:vector(packetBytes) ETV
attr interpolationmode none
attr source packetSentToLower
attr title "packets transmitted, vector(packetBytes)"
vector 349 XHost_SpineLeaf_Network.leaf[2].topOfRack.eth[6].mac txPk:vector(packetBytes) ETV
attr interpolationmode none
attr source packetSentToLower
attr title "packets transmitted, vector(packetBytes)"
vector 350 XHost_SpineLeaf_Network.leaf[3].topOfRack.eth[5].mac txPk:vector(packetBytes) ETV
attr interpolationmode none
attr source packetSentToLower
attr title "packets transmitted, vector(packetBytes)"
vector 351 XHost_SpineLeaf_Network.leaf[3].topOfRack.eth[6].mac txPk:vector(packetBytes) ETV
attr interpolationmode none
attr source packetSentToLower
attr title "packets transmitted, vector(packetBytes)"
vector 352 XHost_SpineLeaf_Network.leaf[4].topOfRack.eth[5].mac txPk:vector(packetBytes) ETV
attr interpolationmode none
attr source packetSentToLower
attr title "packets transmitted, vector(packetBytes)"
vector 353 XHost_SpineLeaf_Network.leaf[4].topOfRack.eth[6].mac txPk:vector(packetBytes) ETV
attr interpolationmode none
attr source packetSentToLower
attr title "packets transmitted, vector(packetBytes)"
vector 354 XHost_SpineLeaf_Network.leaf[5].topOfRack.eth[5].mac txPk:vector(packetBytes) ETV
attr interpolationmode none
attr source packetSentToLower
attr title "packets transmitted, vector(packetBytes)"
vector 355 XHost_SpineLeaf_Network.leaf[5].topOfRack.eth[6].mac txPk:vector(packetBytes) ETV
attr interpolationmode none
attr source packetSentToLower
attr title "packets transmitted, vector(packetBytes)"
vector 356 XHost_SpineLeaf_Network.leaf[6].topOfRack.eth[5].mac txPk:vector(packetBytes) ETV
attr interpolationmode none
attr source packetSentToLower
attr title "packets transmitted, vector(packetBytes)"
vector 357 XHost_SpineLeaf_Network.leaf[6].topOfRack.eth[6].mac txPk:vector(packetBytes) ETV
attr interpolationmode none
attr source packetSentToLower
attr title "packets transmitted, vector(packetBytes)"
vector 358 XHost_SpineLeaf_Network.leaf[7].topOfRack.eth[5].mac txPk:vector(packetBytes) ETV
attr interpolationmode none
attr source packetSentToLower
attr title "packets transmitted, vector(packetBytes)"
vector 359 XHost_SpineLeaf_Network.leaf[7].topOfRack.eth[6].mac txPk:vector(packetBytes) ETV
attr interpolationmode none
attr source packetSentToLower
attr title "packets transmitted, vector(packetBytes)"
vector 360 XHost_SpineLeaf_Network.leaf[0].H[0].eth[0].mac rxPkOk:vector(packetBytes) ETV
attr interpolationmode none
attr source rxPkOk
attr title "packets received OK, vector(packetBytes)"
vector 361 XHost_SpineLeaf_Network.leaf[0].H[0].eth[0].mac passedUpPk:vector(packetBytes) ETV
attr interpolationmode none
attr source packetSentToUpper
attr title "packets passed to higher layer, vector(packetBytes)"
vector 362 XHost_SpineLeaf_Network.leaf[0].H[1].eth[0].mac rxPkOk:vector(packetBytes) ETV
attr interpolationmode none
attr source rxPkOk
attr title "packets received OK, vector(packetBytes)"
vector 363 XHost_SpineLeaf_Network.leaf[0].H[1].eth[0].mac passedUpPk:vector(packetBytes) ETV
attr interpolationmode none
attr source packetSentToUpper
attr title "packets passed to higher layer, vector(packetBytes)"
vector 364 XHost_SpineLeaf_Network.leaf[1].H[0].eth[0].mac rxPkOk:vector(packetBytes) ETV
attr interpolationmode none
attr source rxPkOk
attr title "packets received OK, vector(packetBytes)"
vector 365 XHost_SpineLeaf_Network.leaf[1].H[0].eth[0].mac passedUpPk:vector(packetBytes) ETV
attr interpolationmode none
attr source packetSentToUpper
attr title "packets passed to higher layer, vector(packetBytes)"
vector 366 XHost_SpineLeaf_Network.leaf[1].H[1].eth[0].mac rxPkOk:vector(packetBytes) ETV
attr interpolationmode none
attr source rxPkOk
attr title "packets received OK, vector(packetBytes)"
vector 367 XHost_SpineLeaf_Network.leaf[1].H[1].eth[0].mac passedUpPk:vector(packetBytes) ETV
attr interpolationmode none
attr source packetSentToUpper
attr title "packets passed to higher layer, vector(packetBytes)"
vector 368 XHost_SpineLeaf_Network.leaf[2].H[0].eth[0].mac rxPkOk:vector(packetBytes) ETV
attr interpolationmode none
attr source rxPkOk
attr title "packets received OK, vector(packetBytes)"
vector 369 XHost_SpineLeaf_Network.leaf[2].H[0].eth[0].mac passedUpPk:vector(packetBytes) ETV
attr interpolationmode none
attr source packetSentToUpper
attr title "packets passed to higher layer, vector(packetBytes)"
vector 370 XHost_SpineLeaf_Network.leaf[2].H[1].eth[0].mac rxPkOk:vector(packetBytes) ETV
attr interpolationmode none
attr source rxPkOk
attr title "packets received OK, vector(packetBytes)"
vector 371 XHost_SpineLeaf_Network.leaf[2].H[1].eth[0].mac passedUpPk:vector(packetBytes) ETV
attr interpolationmode none
attr source packetSentToUpper
attr title "packets passed to higher layer, vector(packetBytes)"
vector 372 XHost_SpineLeaf_Network.leaf[3].H[0].eth[0].mac rxPkOk:vector(packetBytes) ETV
attr interpolationmode none
attr source rxPkOk
attr title "packets received OK, vector(packetBytes)"
vector 373 XHost_SpineLeaf_Network.leaf[3].H[0].eth[0].mac passedUpPk:vector(packetBytes) ETV
attr interpolationmode none
attr source packetSentToUpper
attr title "packets passed to higher layer, vector(packetBytes)"
vector 374 XHost_SpineLeaf_Network.leaf[3].H[1].eth[0].mac rxPkOk:vector(packetBytes) ETV
attr interpolationmode none
attr source rxPkOk
attr title "packets received OK, vector(packetBytes)"
vector 375 XHost_SpineLeaf_Network.leaf[3].H[1].eth[0].mac passedUpPk:vector(packetBytes) ETV
attr interpolationmode none
attr source packetSentToUpper
attr title "packets passed to higher layer, vector(packetBytes)"
vector 376 XHost_SpineLeaf_Network.leaf[4].H[0].eth[0].mac rxPkOk:vector(packetBytes) ETV
attr interpolationmode none
attr source rxPkOk
attr title "packets received OK, vector(packetBytes)"
vector 377 XHost_SpineLeaf_Network.leaf[4].H[0].eth[0].mac passedUpPk:vector(packetBytes) ETV
attr interpolationmode none
attr source packetSentToUpper
attr title "packets passed to higher layer, vector(packetBytes)"
vector 378 XHost_SpineLeaf_Network.leaf[4].H[1].eth[0].mac rxPkOk:vector(packetBytes) ETV
attr interpolationmode none
attr source rxPkOk
attr title "packets received OK, vector(packetBytes)"
vector 379 XHost_SpineLeaf_Network.leaf[4].H[1].eth[0].mac passedUpPk:vector(packetBytes) ETV
attr interpolationmode none
attr source packetSentToUpper
attr title "packets passed to higher layer, vector(packetBytes)"
vector 380 XHost_SpineLeaf_Network.leaf[5].H[0].eth[0].mac rxPkOk:vector(packetBytes) ETV
attr interpolationmode none
attr source rxPkOk
attr title "packets received OK, vector(packetBytes)"
vector 381 XHost_SpineLeaf_Network.leaf[5].H[0].eth[0].mac passedUpPk:vector(packetBytes) ETV
attr interpolationmode none
attr source packetSentToUpper
attr title "packets passed to higher layer, vector(packetBytes)"
vector 382 XHost_SpineLeaf_Network.leaf[5].H[1].eth[0].mac rxPkOk:vector(packetBytes) ETV
attr interpolationmode none
attr source rxPkOk
attr title "packets received OK, vector(packetBytes)"
vector 383 XHost_SpineLeaf_Network.leaf[5].H[1].eth[0].mac passedUpPk:vector(packetBytes) ETV
attr interpolationmode none
attr source packetSentToUpper
attr title "packets passed to higher layer, vector(packetBytes)"
vector 384 XHost_SpineLeaf_Network.leaf[6].H[0].eth[0].mac rxPkOk:vector(packetBytes) ETV
attr interpolationmode none
attr source rxPkOk
attr title "packets received OK, vector(packetBytes)"
vector 385 XHost_SpineLeaf_Network.leaf[6].H[0].eth[0].mac passedUpPk:vector(packetBytes) ETV
attr interpolationmode none
attr source packetSentToUpper
attr title "packets passed to higher layer, vector(packetBytes)"
vector 386 XHost_SpineLeaf_Network.leaf[6].H[1].eth[0].mac rxPkOk:vector(packetBytes) ETV
attr interpolationmode none
attr source rxPkOk
attr title "packets received OK, vector(packetBytes)"
vector 387 XHost_SpineLeaf_Network.leaf[6].H[1].eth[0].mac passedUpPk:vector(packetBytes) ETV
attr interpolationmode none
attr source packetSentToUpper
attr title "packets passed to higher layer, vector(packetBytes)"
vector 388 XHost_SpineLeaf_Network.leaf[7].H[0].eth[0].mac rxPkOk:vector(packetBytes) ETV
attr interpolationmode none
attr source rxPkOk
attr title "packets received OK, vector(packetBytes)"
vector 389 XHost_SpineLeaf_Network.leaf[7].H[0].eth[0].mac passedUpPk:vector(packetBytes) ETV
attr interpolationmode none
attr source packetSentToUpper
attr title "packets passed to higher layer, vector(packetBytes)"
vector 390 XHost_SpineLeaf_Network.leaf[7].H[1].eth[0].mac rxPkOk:vector(packetBytes) ETV
attr interpolationmode none
attr source rxPkOk
attr title "packets received OK, vector(packetBytes)"
vector 391 XHost_SpineLeaf_Network.leaf[7].H[1].eth[0].mac passedUpPk:vector(packetBytes) ETV
attr interpolationmode none
attr source packetSentToUpper
attr title "packets passed to higher layer, vector(packetBytes)"
vector 392 XHost_SpineLeaf_Network.leaf[0].H[0].eth[0].encap decapPk:vector(packetBytes) ETV
attr interpolationmode none
attr source decapPk
attr title "packets decapsulated, vector(packetBytes)"
vector 393 XHost_SpineLeaf_Network.leaf[0].H[1].eth[0].encap decapPk:vector(packetBytes) ETV
attr interpolationmode none
attr source decapPk
attr title "packets decapsulated, vector(packetBytes)"
vector 394 XHost_SpineLeaf_Network.leaf[1].H[0].eth[0].encap decapPk:vector(packetBytes) ETV
attr interpolationmode none
attr source decapPk
attr title "packets decapsulated, vector(packetBytes)"
vector 395 XHost_SpineLeaf_Network.leaf[1].H[1].eth[0].encap decapPk:vector(packetBytes) ETV
attr interpolationmode none
attr source decapPk
attr title "packets decapsulated, vector(packetBytes)"
vector 396 XHost_SpineLeaf_Network.leaf[2].H[0].eth[0].encap decapPk:vector(packetBytes) ETV
attr interpolationmode none
attr source decapPk
attr title "packets decapsulated, vector(packetBytes)"
vector 397 XHost_SpineLeaf_Network.leaf[2].H[1].eth[0].encap decapPk:vector(packetBytes) ETV
attr interpolationmode none
attr source decapPk
attr title "packets decapsulated, vector(packetBytes)"
vector 398 XHost_SpineLeaf_Network.leaf[3].H[0].eth[0].encap decapPk:vector(packetBytes) ETV
attr interpolationmode none
attr source decapPk
attr title "packets decapsulated, vector(packetBytes)"
vector 399 XHost_SpineLeaf_Network.leaf[3].H[1].eth[0].encap decapPk:vector(packetBytes) ETV
attr interpolationmode none
attr source decapPk
attr title "packets decapsulated, vector(packetBytes)"
vector 400 XHost_SpineLeaf_Network.leaf[4].H[0].eth[0].encap decapPk:vector(packetBytes) ETV
attr interpolationmode none
attr source decapPk
attr title "packets decapsulated, vector(packetBytes)"
vector 401 XHost_SpineLeaf_Network.leaf[4].H[1].eth[0].encap decapPk:vector(packetBytes) ETV
attr interpolationmode none
attr source decapPk
attr title "packets decapsulated, vector(packetBytes)"
vector 402 XHost_SpineLeaf_Network.leaf[5].H[0].eth[0].encap decapPk:vector(packetBytes) ETV
attr interpolationmode none
attr source decapPk
attr title "packets decapsulated, vector(packetBytes)"
vector 403 XHost_SpineLeaf_Network.leaf[5].H[1].eth[0].encap decapPk:vector(packetBytes) ETV
attr interpolationmode none
attr source decapPk
attr title "packets decapsulated, vector(packetBytes)"
vector 404 XHost_SpineLeaf_Network.leaf[6].H[0].eth[0].encap decapPk:vector(packetBytes) ETV
attr interpolationmode none
attr source decapPk
attr title "packets decapsulated, vector(packetBytes)"
vector 405 XHost_SpineLeaf_Network.leaf[6].H[1].eth[0].encap decapPk:vector(packetBytes) ETV
attr interpolationmode none
attr source decapPk
attr title "packets decapsulated, vector(packetBytes)"
vector 406 XHost_SpineLeaf_Network.leaf[7].H[0].eth[0].encap decapPk:vector(packetBytes) ETV
attr interpolationmode none
attr source decapPk
attr title "packets decapsulated, vector(packetBytes)"
vector 407 XHost_SpineLeaf_Network.leaf[7].H[1].eth[0].encap decapPk:vector(packetBytes) ETV
attr interpolationmode none
attr source decapPk
[...]
904	21127289 21189 313305 372080 36.671137775263 61.03014296676 496 0.00019956 21.915292209586 5437.7899008893 74819.156274599
905	21148478 11936 313305 372080 36.671137775263 61.03014296676 377 304 3451 264392 267151454
1033	21160414 680 314223 324692 36.671896345263 40.676296985263 21 40 576 4664 2248128
1034	21161094 652 313624 324751 36.671441385263 40.676351225263 20 40 576 7232 3994112
1035	21161746 2729 314838 374350 36.909224419586 61.693653385361 84 40 576 27480 14992320
1056	21164475 680 314224 324693 36.671896345263 40.676296985263 21 58 594 5042 2422836
1057	21165155 680 314224 324693 36.671896345263 40.676296985263 21 64 594 5120 2432352
1058	21165835 1302 314224 324693 36.671896345263 40.676296985263 42 0 1 21 21
1059	21167137 680 314224 324693 36.671896345263 40.676296985263 21 64 594 5120 2432352
1060	21167817 677 314224 324693 36.671896345263 40.676296985263 21 0 4.24e-005 9.152e-005 3.0761472e-009
1061	21168494 652 313625 324752 36.671441385263 40.676351225263 20 58 594 7592 4260944
1062	21169146 652 313625 324752 36.671441385263 40.676351225263 20 64 594 7640 4266800
1063	21169798 1302 313291 324752 36.671127065263 40.676351225263 42 0 1 21 21
1064	21171100 684 313291 324752 36.671127065263 40.676351225263 21 64 594 7704 4270896
1065	21171784 659 313291 324752 36.671127065263 40.676351225263 21 0 4.24e-005 4.24e-005 1.79776e-009
1066	21172443 2729 314839 374351 36.909224419586 61.693653385361 84 58 594 28992 16008816
1067	21175172 2729 314839 374351 36.909224419586 61.693653385361 84 64 594 29226 16037364
1068	21177901 5200 314839 374351 36.909224419586 61.693653385361 168 0 1 84 84
1069	21183101 2729 314839 374351 36.909224419586 61.693653385361 84 64 594 29226 16037364
1070	21185830 2633 314839 374351 36.909224419586 61.693653385361 84 0 4.24e-005 0.00014736 5.7997056e-009
1075	21188463 680 314235 324730 36.671902105263 40.676326585263 21 64 594 5120 2432352
1076	21189143 684 313293 324774 36.671132825263 40.676356985263 21 64 594 7704 4270896
1077	21189827 2729 314853 374353 36.909230179586 61.693659145361 84 64 594 29226 16037364
1086	21192556 680 314236 324731 36.671902155263 40.676326635263 21 64 594 5120 2432352
1087	21193236 680 314236 324731 36.671902155263 40.676326635263 21 64 594 5120 2432352
1088	21193916 684 313294 324775 36.671132875263 40.676357035263 21 64 594 7704 4270896
1089	21194600 684 313294 324775 36.671132875263 40.676357035263 21 64 594 7704 4270896
1090	21195284 2728 314854 374354 36.909230229586 61.693659195361 84 64 594 29226 16037364
1091	21198012 2728 314854 374354 36.909230229586 61.693659195361 84 64 594 29226 16037364
1096	21200740 680 314237 324732 36.671902155263 40.676326635263 21 46 576 4742 2254836
1097	21201420 684 313295 324776 36.671132875263 40.676357035263 21 46 576 7326 4000356
1098	21202104 2728 314855 374355 36.909230229586 61.693659195361 84 46 576 27714 15012444
1103	21204832 719 313485 324634 36.671339155263 40.676213315263 22 40 576 8920 4987840
1104	21205551 615 313781 324540 36.671555235263 40.676157475263 19 40 576 4512 2341632
1105	21206166 3602 314807 373763 36.909197629586 61.693198355361 111 40 576 35528 19327808
1126	21209768 719 313486 324635 36.671339155263 40.676213315263 22 58 594 9316 5316088
1127	21210487 719 313486 324635 36.671339155263 40.676213315263 22 64 594 9358 5321212
1128	21211206 1364 313486 324635 36.671339155263 40.676213315263 44 0 1 22 22
1129	21212570 719 313486 324635 36.671339155263 40.676213315263 22 64 594 9358 5321212
1130	21213289 690 313486 324635 36.671339155263 40.676213315263 22 0 2.28e-005 2.28e-005 5.1984e-010
1131	21213979 615 313782 324541 36.671555235263 40.676157475263 19 58 594 4854 2510220
1132	21214594 615 313782 324541 36.671555235263 40.676157475263 19 64 594 4926 2519004
1133	21215209 1178 313782 324541 36.671555235263 40.676157475263 38 0 1 19 19
1134	21216387 615 313782 324541 36.671555235263 40.676157475263 19 64 594 4926 2519004
1135	21217002 597 313782 324541 36.671555235263 40.676157475263 19 0 4.24e-005 4.24e-005 1.79776e-009
1136	21217599 3602 314808 373764 36.909197629586 61.693198355361 111 58 594 37526 20642780
1137	21221201 3602 314808 373764 36.909197629586 61.693198355361 111 64 594 37844 20681576
1138	21224803 6866 314808 373764 36.909197629586 61.693198355361 222 0 1 111 111
1139	21231669 3602 314808 373764 36.909197629586 61.693198355361 111 64 594 37844 20681576
1140	21235271 3458 314808 373764 36.909197629586 61.693198355361 111 0 4.24e-005 0.00010088 3.5906624e-009
1145	21238729 719 313543 324644 36.671387315263 40.676219075263 22 64 594 9358 5321212
1146	21239448 615 313816 324552 36.671603395263 40.676163235263 19 64 594 4926 2519004
1147	21240063 3601 314810 373812 36.909203389586 61.693246515361 111 64 594 37844 20681576
1156	21243664 719 313544 324645 36.671387365263 40.676219125263 22 64 594 9358 5321212
1157	21244383 719 313544 324645 36.671387365263 40.676219125263 22 64 594 9358 5321212
1158	21245102 615 313817 324553 36.671603445263 40.676163285263 19 64 594 4926 2519004
1159	21245717 615 313817 324553 36.671603445263 40.676163285263 19 64 594 4926 2519004
1160	21246332 3602 314811 373813 36.909203439586 61.693246565361 111 64 594 37844 20681576
1161	21249934 3602 314811 373813 36.909203439586 61.693246565361 111 64 594 37844 20681576
1166	21253536 719 313546 324646 36.671387365263 40.676219125263 22 46 576 8962 4991452
1167	21254255 615 313818 324555 36.671603445263 40.676163285263 19 46 576 4584 2347824
1168	21254870 3602 314812 373815 36.909203439586 61.693246565361 111 46 576 35846 19355156
1174	21258472 64 341209 355852 50.679295915361 56.685587595361 2 64 64 128 8192
1337	21258536 32 322720 322720 39.675870635263 39.675870635263 1 64 64 64 4096
1390	21258568 64 347673 352439 53.681981985361 55.684122305361 2 64 64 128 8192
1439	21258632 2582 329012 372213 46.00060775 61.03031329676 82 40 576 26328 14328768
1440	21261214 3761 314456 374024 36.908609219586 61.693398825361 116 40 576 39484 21647376
1446	21264975 2582 329013 372214 46.00060775 61.03031329676 82 58 594 27804 15303144
1447	21267557 2582 329013 372214 46.00060775 61.03031329676 82 64 594 28038 15331692
1448	21270139 4914 329013 372214 46.00060775 61.03031329676 164 0 1 82 82
1449	21275053 2582 329013 372214 46.00060775 61.03031329676 82 64 594 28038 15331692
1450	21277635 2465 329013 372214 46.00060775 61.03031329676 82 0 4.24e-005 4.24e-005 1.79776e-009
1451	21280100 3761 314457 374025 36.908609219586 61.693398825361 116 58 594 41572 23106384
1452	21283861 3761 314457 374025 36.908609219586 61.693398825361 116 64 594 41874 23143236
1453	21287622 7160 314457 374025 36.908609219586 61.693398825361 232 0 1 116 116
1454	21294782 3761 314457 374025 36.908609219586 61.693398825361 116 64 594 41874 23143236
1455	21298543 3620 314457 374025 36.908609219586 61.693398825361 116 0 4.24e-005 0.00017632 7.2361984e-009
1457	21302163 2582 329080 372216 46.00065591 61.03031905676 82 64 594 28038 15331692
1458	21304745 3761 314459 374027 36.908657379586 61.693404585361 116 64 594 41874 23143236
1461	21308506 2582 329081 372217 46.00065596 61.03031910676 82 64 594 28038 15331692
1462	21311088 2582 329081 372217 46.00065596 61.03031910676 82 64 594 28038 15331692
1463	21313670 3760 314460 374028 36.908657429586 61.693404635361 116 64 594 41874 23143236
1464	21317430 3760 314460 374028 36.908657429586 61.693404635361 116 64 594 41874 23143236
1466	21321190 2582 329082 372218 46.00065596 61.03031910676 82 46 576 26562 14348892
1467	21323772 3760 314461 374029 36.908657429586 61.693404635361 116 46 576 39786 21673356
1469	21327532 2346 329255 371723 46.000764 61.02985434676 75 40 576 21704 11614784
1470	21329878 3400 314775 373946 36.909171309586 61.693345715361 105 40 576 30468 16346960
1476	21333278 2346 329256 371724 46.000764 61.02985434676 75 58 594 23054 12420428
1477	21335624 2346 329256 371724 46.000764 61.02985434676 75 64 594 23294 12449708
1478	21337970 4472 329256 371724 46.000764 61.02985434676 150 0 2 77 79
1479	21342442 2315 329256 371724 46.000764 61.02985434676 74 64 594 23230 12445612
1480	21344757 2233 329256 371724 46.000764 61.02985434676 74 0 3.568e-005 9.416e-005 2.9831744e-009
1481	21346990 3400 314776 373947 36.909171309586 61.693345715361 105 58 594 32358 17477828
1482	21350390 3400 314776 373947 36.909171309586 61.693345715361 105 64 594 32690 17518340
1483	21353790 6492 314776 373947 36.909171309586 61.693345715361 210 0 1 105 105
1484	21360282 3400 314776 373947 36.909171309586 61.693345715361 105 64 594 32690 17518340
1485	21363682 3287 314776 373947 36.909171309586 61.693345715361 105 0 4.24e-005 0.00019912 8.0624704e-009
1487	21366969 2316 329272 371736 46.00076976 61.02986010676 74 64 594 23230 12445612
1488	21369285 3401 314826 373998 36.909219469586 61.693393875361 105 64 594 32690 17518340
1491	21372686 2317 329273 371738 46.00076981 61.02986015676 74 64 594 23230 12445612
1492	21375003 2317 329273 371738 46.00076981 61.02986015676 74 64 594 23230 12445612
1493	21377320 3401 314827 373999 36.909219519586 61.693393925361 105 64 594 32690 17518340
1494	21380721 3401 314827 373999 36.909219519586 61.693393925361 105 64 594 32690 17518340
1496	21384122 2317 329274 371741 46.00076981 61.02986015676 74 46 576 21898 11633308
1497	21386439 3401 314829 374001 36.909219519586 61.693393925361 105 46 576 30800 16375520
1530	21389840 2477 328909 372055 46.00054792 61.03011954676 79 40 576 24600 13333440
1531	21392317 2477 328910 372056 46.00054792 61.03011954676 79 58 594 26022 14244636
1532	21394794 2477 328910 372056 46.00054792 61.03011954676 79 64 594 26256 14273184
1533	21397271 4716 328910 372056 46.00054792 61.03011954676 158 0 1 79 79
1534	21401987 2477 328910 372056 46.00054792 61.03011954676 79 64 594 26256 14273184
1535	21404464 2409 328910 372056 46.00054792 61.03011954676 79 0 4.24e-005 0.00020176 7.0985344e-009
1542	21406873 2475 328925 372058 46.00055368 61.03012530676 79 64 594 26256 14273184
1543	21409348 2477 328926 372059 46.00055373 61.03012535676 79 64 594 26256 14273184
1544	21411825 2477 328926 372059 46.00055373 61.03012535676 79 64 594 26256 14273184
1545	21414302 2477 328928 372060 46.00055373 61.03012535676 79 46 576 24834 13353564
1546	21416779 2215 328388 371927 46.00006391 61.03000505676 71 40 576 23208 12660288
1547	21418994 2215 328389 371928 46.00006391 61.03000505676 71 58 594 24486 13518780
1548	21421209 2215 328389 371928 46.00006391 61.03000505676 71 64 594 24684 13542936
1549	21423424 4212 328389 371928 46.00006391 61.03000505676 142 0 1 71 71
1550	21427636 2215 328389 371928 46.00006391 61.03000505676 71 64 594 24684 13542936
1551	21429851 2149 328389 371928 46.00006391 61.03000505676 71 0 4.24e-005 0.00014472 4.8753216e-009
1552	21432000 718 313406 324456 36.671209225263 40.676001225263 22 40 576 8384 4657664
1553	21432718 718 313407 324457 36.671209225263 40.676001225263 22 58 594 8780 4966616
1554	21433436 718 313407 324457 36.671209225263 40.676001225263 22 64 594 8828 4972472
1555	21434154 1364 313407 324457 36.671209225263 40.676001225263 44 0 1 22 22
1556	21435518 718 313407 324457 36.671209225263 40.676001225263 22 64 594 8828 4972472
1557	21436236 682 313407 324457 36.671209225263 40.676001225263 22 0 0 0 0
1558	21436918 2215 328408 371930 46.00006967 61.03001081676 71 64 594 24684 13542936
1559	21439133 2212 328409 371931 46.00006972 61.03001086676 71 64 594 24684 13542936
1560	21441345 2212 328409 371931 46.00006972 61.03001086676 71 64 594 24684 13542936
1561	21443557 2212 328410 371932 46.00006972 61.03001086676 71 46 576 23406 12677316
1565	21445769 718 313425 324466 36.671257385263 40.676049385263 22 64 594 8828 4972472
1566	21446487 718 313426 324467 36.671257435263 40.676049435263 22 64 594 8828 4972472
1567	21447205 718 313426 324467 36.671257435263 40.676049435263 22 64 594 8828 4972472
1568	21447923 718 313427 324468 36.671257435263 40.676049435263 22 46 576 8432 4661792
1569	21448641 746 313392 324816 36.671198515263 40.676373555263 23 40 576 6280 3338560
1570	21449387 746 313393 324817 36.671198515263 40.676373555263 23 58 594 6694 3572092
1571	21450133 746 313393 324817 36.671198515263 40.676373555263 23 64 594 6772 3581608
1572	21450879 1426 313393 324817 36.671198515263 40.676373555263 46 0 1 23 23
1573	21452305 746 313393 324817 36.671198515263 40.676373555263 23 64 594 6772 3581608
1574	21453051 730 313393 324817 36.671198515263 40.676373555263 23 0 2.896e-005 3.568e-005 8.8384e-010
1578	21453781 746 313395 324819 36.671204275263 40.676379315263 23 64 594 6772 3581608
1579	21454527 746 313396 324820 36.671204325263 40.676379365263 23 64 594 6772 3581608
1580	21455273 746 313396 324820 36.671204325263 40.676379365263 23 64 594 6772 3581608
1581	21456019 746 313397 324821 36.671204325263 40.676379365263 23 46 576 6358 3345268
1634	21456765 2227 328937 372182 46.00055772 61.03023874676 71 40 576 21424 11497984
1635	21458992 2227 328938 372183 46.00055772 61.03023874676 71 58 594 22702 12292252
1636	21461219 2227 328938 372183 46.00055772 61.03023874676 71 64 594 22918 12318604
1637	21463446 4242 328938 372183 46.00055772 61.03023874676 142 0 1 71 71
1638	21467688 2227 328938 372183 46.00055772 61.03023874676 71 64 594 22918 12318604
1639	21469915 2165 328938 372183 46.00055772 61.03023874676 71 0 4.24e-005 0.00014792 4.745248e-009
1640	21472080 2226 328957 372192 46.00056348 61.03027282676 71 64 594 22918 12318604
1641	21474306 2227 328958 372193 46.00056353 61.03027287676 71 64 594 22918 12318604
1642	21476533 2227 328958 372193 46.00056353 61.03027287676 71 64 594 22918 12318604
1643	21478760 2227 328959 372194 46.00056353 61.03027287676 71 46 576 21640 11516560
1644	21480987 2204 330182 372092 48.01190657676 61.03014633676 70 40 576 20792 11104832
1645	21483191 2204 330183 372093 48.01190657676 61.03014633676 70 58 594 22052 11876024
1646	21485395 2204 330183 372093 48.01190657676 61.03014633676 70 64 594 22268 11902376
1647	21487599 4200 330183 372093 48.01190657676 61.03014633676 140 0 1 70 70
1648	21491799 2204 330183 372093 48.01190657676 61.03014633676 70 64 594 22268 11902376
1649	21494003 2149 330183 372093 48.01190657676 61.03014633676 70 0 4.24e-005 0.00020976 8.4841728e-009
1650	21496152 2204 330201 372110 48.01195473676 61.03015209676 70 64 594 22268 11902376
1651	21498356 2204 330202 372111 48.01195478676 61.03015214676 70 64 594 22268 11902376
1652	21500560 2204 330202 372111 48.01195478676 61.03015214676 70 64 594 22268 11902376
1653	21502764 2204 330203 372112 48.01195478676 61.03015214676 70 46 576 21008 11123408
1709	21504968 812 314002 325020 36.671702595263 40.676556755263 25 40 576 7200 3788672
1710	21505780 812 314004 325021 36.671702595263 40.676556755263 25 58 594 7650 4055972
1711	21506592 812 314004 325021 36.671702595263 40.676556755263 25 64 594 7728 4065488
1712	21507404 1550 314004 325021 36.671702595263 40.676556755263 50 0 1 25 25
1713	21508954 812 314004 325021 36.671702595263 40.676556755263 25 64 594 7728 4065488
1714	21509766 783 314004 325021 36.671702595263 40.676556755263 25 0 4.24e-005 4.24e-005 1.79776e-009
1715	21510549 812 314022 325023 36.671708355263 40.676586355263 25 64 594 7728 4065488
1716	21511361 812 314023 325024 36.671708405263 40.676586405263 25 64 594 7728 4065488
1717	21512173 812 314023 325024 36.671708405263 40.676586405263 25 64 594 7728 4065488
1718	21512985 812 314025 325025 36.671708405263 40.676586405263 25 46 576 7278 3795380
1719	21513797 876 313555 325088 36.671392265263 40.676670985263 27 40 576 7512 4005312
1720	21514673 876 313556 325089 36.671392265263 40.676670985263 27 58 594 7998 4284492
1721	21515549 876 313556 325089 36.671392265263 40.676670985263 27 64 594 8088 4295472
1722	21516425 1674 313556 325089 36.671392265263 40.676670985263 54 0 1 27 27
1723	21518099 876 313556 325089 36.671392265263 40.676670985263 27 64 594 8088 4295472
1724	21518975 845 313556 325089 36.671392265263 40.676670985263 27 0 4.24e-005 4.24e-005 1.79776e-009
1725	21519820 876 313567 325091 36.671398025263 40.676676745263 27 64 594 8088 4295472
1726	21520696 876 313568 325092 36.671398075263 40.676676795263 27 64 594 8088 4295472
1727	21521572 876 313568 325092 36.671398075263 40.676676795263 27 64 594 8088 4295472
1728	21522448 876 313569 325093 36.671398075263 40.676676795263 27 46 576 7602 4013052
1764	21523324 3305 314531 374270 36.908825299586 61.693595305361 102 40 576 30112 16128384
1765	21526629 3305 314532 374271 36.908825299586 61.693595305361 102 58 594 31948 17245464
1766	21529934 3305 314532 374271 36.908825299586 61.693595305361 102 64 594 32266 17284260
1767	21533239 6308 314532 374271 36.908825299586 61.693595305361 204 0 1 102 102
1768	21539547 3305 314532 374271 36.908825299586 61.693595305361 102 64 594 32266 17284260
1769	21542852 3179 314532 374271 36.908825299586 61.693595305361 102 0 4.24e-005 0.00012104 4.9088576e-009
1770	21546031 3305 314541 374282 36.908873459586 61.693601065361 102 64 594 32266 17284260
1771	21549336 3304 314542 374283 36.908873509586 61.693601115361 102 64 594 32266 17284260
1772	21552640 3304 314542 374283 36.908873509586 61.693601115361 102 64 594 32266 17284260
1773	21555944 3304 314543 374284 36.908873509586 61.693601115361 102 46 576 30430 16155732
1774	21559248 3210 314689 374226 36.909030669586 61.693560115361 99 40 576 30794 16671076
1775	21562458 3210 314690 374227 36.909030669586 61.693560115361 99 58 594 32576 17811736
1776	21565668 3210 314690 374227 36.909030669586 61.693560115361 99 64 594 32864 17846872
1777	21568878 6122 314690 374227 36.909030669586 61.693560115361 198 0 1 99 99
1778	21575000 3210 314690 374227 36.909030669586 61.693560115361 99 64 594 32864 17846872
1779	21578210 3086 314690 374227 36.909030669586 61.693560115361 99 0 4.24e-005 0.00011376 4.4342016e-009
1780	21581296 3210 314692 374235 36.909036429586 61.693568115361 99 64 594 32864 17846872
1781	21584506 3210 314693 374236 36.909036479586 61.693568165361 99 64 594 32864 17846872
1782	21587716 3210 314693 374236 36.909036479586 61.693568165361 99 64 594 32864 17846872
1783	21590926 3210 314694 374237 36.909036479586 61.693568165361 99 46 576 31082 16695844
1855	21594136 1685 313539 325078 36.671386455263 40.676665175263 51 536 2144 30320 21678208
1856	21595821 2565 313539 325078 36.671386455263 40.676665175263 57 14.671321635263 18.676600355263 960.41247448999 16266.775727541
1863	21598386 2178 314581 328195 36.908953409586 43.915808289586 66 536 840 35680 19379840
1864	21600564 3015 314581 328195 36.908953409586 43.915808289586 67 14.908876969586 21.915731849586 1206.1252744823 21988.489867809
1867	21603579 297 314935 327508 36.909281169586 42.914832529586 9 594 594 5346 3175524
1875	21603876 64 319585 320184 38.910908959586 38.911455439586 2 64 64 128 8192
1890	21603940 231 313733 322141 36.671475335263 39.675415895263 7 594 594 4158 2469852
1891	21604171 130 313947 322564 36.671679445263 39.675724405263 4 64 594 1316 713864
1913	21604301 31 328368 328368 46.0000581 46.0000581 1 100000 100000 100000 10000000000
1919	21604332 32 328399 328399 46.00006482 46.00006482 1 100000 100000 100000 10000000000
1946	21604364 5839 328735 372241 46.00045722 61.03034252676 183 360 2680 100000 59255680
1947	21610203 8147 328735 372241 46.00045722 61.03034252676 193 0.00039912 15.03028442676 1454.0372182441 14823.403605343
1954	21618350 5929 328821 374378 46.00052468 61.693696695361 180 536 4022 100000 67640072
1955	21624279 8488 328821 374378 46.00052468 61.693696695361 191 0.00045986 15.693631875361 2045.6218507453 25909.53362245
1956	21632767 727 328973 364581 46.00056934 60.02898556676 23 594 594 13662 8115228
1957	21633494 717 329110 370366 46.00066268 60.693705655361 22 64 594 12538 7413652
1967	21634211 93 330612 363133 48.01233829676 59.02873597676 3 64 64 192 12288
1968	21634304 530 332250 371833 48.01389463676 61.02990927676 17 64 594 2678 1115852
1972	21634834 322 336254 368505 49.646546055335 60.691526485361 10 64 594 1700 738440
1973	21635156 31 337337 337337 50.01624842676 50.01624842676 1 64 64 64 4096

