file 21733310 1611802876                                        
version 2
run Traffic_1-0-20210127-22:01:13-196
attr configname Traffic_1
attr datetime 20210127-22:01:13
attr experiment Traffic_1
attr inifile _XHostSpineLeaf/XHost_SpineLeaf.ini
attr iterationvars ""
attr iterationvarsf ""
attr measurement ""
attr network XHost_SpineLeaf_Network
attr processid 196
attr repetition 0
attr replication #0
attr resultdir results
attr runnumber 0
attr seedset 0
param **.borderLeaf.**.packetCapacity 1
param **.leaf[*].**.packetCapacity 1
param **.spine[*].**.packetCapacity 1
param **.H[*].numApps 1
param **.border.numApps 1
param **.H[*].app[0].typename "\"TcpSessionApp\""
param **.H[*].app[0].connectAddress "\"border\""
param **.H[*].app[0].tOpen 1.0s
param **.H[*].app[0].tSend 1.1s
param **.H[*].app[0].sendBytes 100000B
param **.H[*].app[0].tClose 0s
param **.border.app[0].typename "\"TcpEchoApp\""
param **.LanVisualizer.interfaceTableVisualizer.displayInterfaceTables true
param **.LanVisualizer.interfaceTableVisualizer.displayWiredInterfacesAtConnections false
param **.LanVisualizer.interfaceTableVisualizer.nodeFilter "\"not (*topOfRack or *H*)\""
param **.LanVisualizer.interfaceTableVisualizer.placementPriority 2
param **.LanVisualizer.interfaceTableVisualizer.format "\"%N %\\\\%n/%l%\\\\%m\""
param **.LanVisualizer.packetDropVisualizer.displayPacketDrops true
param **.LanVisualizer.packetDropVisualizer.labelFormat "\"%n/reason: %r\""
param **.LanVisualizer.packetDropVisualizer.fadeOutTime 10s
param **.LeafVisualizer.interfaceTableVisualizer.displayInterfaceTables true
param **.LeafVisualizer.interfaceTableVisualizer.displayWiredInterfacesAtConnections false
param **.LeafVisualizer.interfaceTableVisualizer.placementPriority 2
param **.LeafVisualizer.interfaceTableVisualizer.format "\"%N %\\\\%n/%l%\\\\%m\""
param **.configurator.config "xmldoc(\"../../Research/Spine-Leaf-ManualDCN/_XHostSpineLeaf/XHost_SpineLeaf_Routing.xml\")"

vector 0 XHost_SpineLeaf_Network.leaf[0].H[0].tcp.conn-17 tcpRcvQueueBytes:vector ETV
attr interpolationmode sample-hold
vector 1 XHost_SpineLeaf_Network.leaf[0].H[0].tcp.conn-17 rcvAdv:vector ETV
attr interpolationmode sample-hold
vector 2 XHost_SpineLeaf_Network.leaf[0].H[0].tcp.conn-17 rcvWnd:vector ETV
attr interpolationmode sample-hold
vector 3 XHost_SpineLeaf_Network.leaf[0].H[0].tcp.conn-17 sndAck:vector ETV
attr interpolationmode sample-hold
vector 4 XHost_SpineLeaf_Network.leaf[0].H[1].tcp.conn-18 tcpRcvQueueBytes:vector ETV
attr interpolationmode sample-hold
vector 5 XHost_SpineLeaf_Network.leaf[0].H[1].tcp.conn-18 rcvAdv:vector ETV
attr interpolationmode sample-hold
vector 6 XHost_SpineLeaf_Network.leaf[0].H[1].tcp.conn-18 rcvWnd:vector ETV
attr interpolationmode sample-hold
vector 7 XHost_SpineLeaf_Network.leaf[0].H[1].tcp.conn-18 sndAck:vector ETV
attr interpolationmode sample-hold
vector 8 XHost_SpineLeaf_Network.leaf[1].H[0].tcp.conn-19 tcpRcvQueueBytes:vector ETV
attr interpolationmode sample-hold
vector 9 XHost_SpineLeaf_Network.leaf[1].H[0].tcp.conn-19 rcvAdv:vector ETV
attr interpolationmode sample-hold
vector 10 XHost_SpineLeaf_Network.leaf[1].H[0].tcp.conn-19 rcvWnd:vector ETV
attr interpolationmode sample-hold
vector 11 XHost_SpineLeaf_Network.leaf[1].H[0].tcp.conn-19 sndAck:vector ETV
attr interpolationmode sample-hold
vector 12 XHost_SpineLeaf_Network.leaf[1].H[1].tcp.conn-20 tcpRcvQueueBytes:vector ETV
attr interpolationmode sample-hold
vector 13 XHost_SpineLeaf_Network.leaf[1].H[1].tcp.conn-20 rcvAdv:vector ETV
attr interpolationmode sample-hold
vector 14 XHost_SpineLeaf_Network.leaf[1].H[1].tcp.conn-20 rcvWnd:vector ETV
attr interpolationmode sample-hold
vector 15 XHost_SpineLeaf_Network.leaf[1].H[1].tcp.conn-20 sndAck:vector ETV
attr interpolationmode sample-hold
vector 16 XHost_SpineLeaf_Network.leaf[2].H[0].tcp.conn-21 tcpRcvQueueBytes:vector ETV
attr interpolationmode sample-hold
vector 17 XHost_SpineLeaf_Network.leaf[2].H[0].tcp.conn-21 rcvAdv:vector ETV
attr interpolationmode sample-hold
vector 18 XHost_SpineLeaf_Network.leaf[2].H[0].tcp.conn-21 rcvWnd:vector ETV
attr interpolationmode sample-hold
vector 19 XHost_SpineLeaf_Network.leaf[2].H[0].tcp.conn-21 sndAck:vector ETV
attr interpolationmode sample-hold
vector 20 XHost_SpineLeaf_Network.leaf[2].H[1].tcp.conn-22 tcpRcvQueueBytes:vector ETV
attr interpolationmode sample-hold
vector 21 XHost_SpineLeaf_Network.leaf[2].H[1].tcp.conn-22 rcvAdv:vector ETV
attr interpolationmode sample-hold
vector 22 XHost_SpineLeaf_Network.leaf[2].H[1].tcp.conn-22 rcvWnd:vector ETV
attr interpolationmode sample-hold
vector 23 XHost_SpineLeaf_Network.leaf[2].H[1].tcp.conn-22 sndAck:vector ETV
attr interpolationmode sample-hold
vector 24 XHost_SpineLeaf_Network.leaf[3].H[0].tcp.conn-23 tcpRcvQueueBytes:vector ETV
attr interpolationmode sample-hold
vector 25 XHost_SpineLeaf_Network.leaf[3].H[0].tcp.conn-23 rcvAdv:vector ETV
attr interpolationmode sample-hold
vector 26 XHost_SpineLeaf_Network.leaf[3].H[0].tcp.conn-23 rcvWnd:vector ETV
attr interpolationmode sample-hold
vector 27 XHost_SpineLeaf_Network.leaf[3].H[0].tcp.conn-23 sndAck:vector ETV
attr interpolationmode sample-hold
vector 28 XHost_SpineLeaf_Network.leaf[3].H[1].tcp.conn-24 tcpRcvQueueBytes:vector ETV
attr interpolationmode sample-hold
vector 29 XHost_SpineLeaf_Network.leaf[3].H[1].tcp.conn-24 rcvAdv:vector ETV
attr interpolationmode sample-hold
vector 30 XHost_SpineLeaf_Network.leaf[3].H[1].tcp.conn-24 rcvWnd:vector ETV
attr interpolationmode sample-hold
vector 31 XHost_SpineLeaf_Network.leaf[3].H[1].tcp.conn-24 sndAck:vector ETV
attr interpolationmode sample-hold
vector 32 XHost_SpineLeaf_Network.leaf[4].H[0].tcp.conn-25 tcpRcvQueueBytes:vector ETV
attr interpolationmode sample-hold
vector 33 XHost_SpineLeaf_Network.leaf[4].H[0].tcp.conn-25 rcvAdv:vector ETV
attr interpolationmode sample-hold
vector 34 XHost_SpineLeaf_Network.leaf[4].H[0].tcp.conn-25 rcvWnd:vector ETV
attr interpolationmode sample-hold
vector 35 XHost_SpineLeaf_Network.leaf[4].H[0].tcp.conn-25 sndAck:vector ETV
attr interpolationmode sample-hold
vector 36 XHost_SpineLeaf_Network.leaf[4].H[1].tcp.conn-26 tcpRcvQueueBytes:vector ETV
attr interpolationmode sample-hold
vector 37 XHost_SpineLeaf_Network.leaf[4].H[1].tcp.conn-26 rcvAdv:vector ETV
attr interpolationmode sample-hold
vector 38 XHost_SpineLeaf_Network.leaf[4].H[1].tcp.conn-26 rcvWnd:vector ETV
attr interpolationmode sample-hold
vector 39 XHost_SpineLeaf_Network.leaf[4].H[1].tcp.conn-26 sndAck:vector ETV
attr interpolationmode sample-hold
vector 40 XHost_SpineLeaf_Network.leaf[5].H[0].tcp.conn-27 tcpRcvQueueBytes:vector ETV
attr interpolationmode sample-hold
vector 41 XHost_SpineLeaf_Network.leaf[5].H[0].tcp.conn-27 rcvAdv:vector ETV
attr interpolationmode sample-hold
vector 42 XHost_SpineLeaf_Network.leaf[5].H[0].tcp.conn-27 rcvWnd:vector ETV
attr interpolationmode sample-hold
vector 43 XHost_SpineLeaf_Network.leaf[5].H[0].tcp.conn-27 sndAck:vector ETV
attr interpolationmode sample-hold
vector 44 XHost_SpineLeaf_Network.leaf[5].H[1].tcp.conn-28 tcpRcvQueueBytes:vector ETV
attr interpolationmode sample-hold
vector 45 XHost_SpineLeaf_Network.leaf[5].H[1].tcp.conn-28 rcvAdv:vector ETV
attr interpolationmode sample-hold
vector 46 XHost_SpineLeaf_Network.leaf[5].H[1].tcp.conn-28 rcvWnd:vector ETV
attr interpolationmode sample-hold
vector 47 XHost_SpineLeaf_Network.leaf[5].H[1].tcp.conn-28 sndAck:vector ETV
attr interpolationmode sample-hold
vector 48 XHost_SpineLeaf_Network.leaf[6].H[0].tcp.conn-29 tcpRcvQueueBytes:vector ETV
attr interpolationmode sample-hold
vector 49 XHost_SpineLeaf_Network.leaf[6].H[0].tcp.conn-29 rcvAdv:vector ETV
attr interpolationmode sample-hold
vector 50 XHost_SpineLeaf_Network.leaf[6].H[0].tcp.conn-29 rcvWnd:vector ETV
attr interpolationmode sample-hold
vector 51 XHost_SpineLeaf_Network.leaf[6].H[0].tcp.conn-29 sndAck:vector ETV
attr interpolationmode sample-hold
vector 52 XHost_SpineLeaf_Network.leaf[6].H[1].tcp.conn-30 tcpRcvQueueBytes:vector ETV
attr interpolationmode sample-hold
vector 53 XHost_SpineLeaf_Network.leaf[6].H[1].tcp.conn-30 rcvAdv:vector ETV
attr interpolationmode sample-hold
vector 54 XHost_SpineLeaf_Network.leaf[6].H[1].tcp.conn-30 rcvWnd:vector ETV
attr interpolationmode sample-hold
vector 55 XHost_SpineLeaf_Network.leaf[6].H[1].tcp.conn-30 sndAck:vector ETV
attr interpolationmode sample-hold
vector 56 XHost_SpineLeaf_Network.leaf[7].H[0].tcp.conn-31 tcpRcvQueueBytes:vector ETV
attr interpolationmode sample-hold
vector 57 XHost_SpineLeaf_Network.leaf[7].H[0].tcp.conn-31 rcvAdv:vector ETV
attr interpolationmode sample-hold
vector 58 XHost_SpineLeaf_Network.leaf[7].H[0].tcp.conn-31 rcvWnd:vector ETV
attr interpolationmode sample-hold
vector 59 XHost_SpineLeaf_Network.leaf[7].H[0].tcp.conn-31 sndAck:vector ETV
attr interpolationmode sample-hold
vector 60 XHost_SpineLeaf_Network.leaf[7].H[1].tcp.conn-32 tcpRcvQueueBytes:vector ETV
attr interpolationmode sample-hold
vector 61 XHost_SpineLeaf_Network.leaf[7].H[1].tcp.conn-32 rcvAdv:vector ETV
attr interpolationmode sample-hold
vector 62 XHost_SpineLeaf_Network.leaf[7].H[1].tcp.conn-32 rcvWnd:vector ETV
attr interpolationmode sample-hold
vector 63 XHost_SpineLeaf_Network.leaf[7].H[1].tcp.conn-32 sndAck:vector ETV
attr interpolationmode sample-hold
vector 64 XHost_SpineLeaf_Network.leaf[0].H[0].ipv4.arp arpRequestSent:vector(packetBytes) ETV
attr source arpRequestSent
attr title "ARP request sent, vector(packetBytes)"
vector 65 XHost_SpineLeaf_Network.leaf[0].H[1].ipv4.arp arpRequestSent:vector(packetBytes) ETV
attr source arpRequestSent
attr title "ARP request sent, vector(packetBytes)"
vector 66 XHost_SpineLeaf_Network.leaf[1].H[0].ipv4.arp arpRequestSent:vector(packetBytes) ETV
attr source arpRequestSent
attr title "ARP request sent, vector(packetBytes)"
vector 67 XHost_SpineLeaf_Network.leaf[1].H[1].ipv4.arp arpRequestSent:vector(packetBytes) ETV
attr source arpRequestSent
attr title "ARP request sent, vector(packetBytes)"
vector 68 XHost_SpineLeaf_Network.leaf[2].H[0].ipv4.arp arpRequestSent:vector(packetBytes) ETV
attr source arpRequestSent
attr title "ARP request sent, vector(packetBytes)"
vector 69 XHost_SpineLeaf_Network.leaf[2].H[1].ipv4.arp arpRequestSent:vector(packetBytes) ETV
attr source arpRequestSent
attr title "ARP request sent, vector(packetBytes)"
vector 70 XHost_SpineLeaf_Network.leaf[3].H[0].ipv4.arp arpRequestSent:vector(packetBytes) ETV
attr source arpRequestSent
attr title "ARP request sent, vector(packetBytes)"
vector 71 XHost_SpineLeaf_Network.leaf[3].H[1].ipv4.arp arpRequestSent:vector(packetBytes) ETV
attr source arpRequestSent
attr title "ARP request sent, vector(packetBytes)"
vector 72 XHost_SpineLeaf_Network.leaf[4].H[0].ipv4.arp arpRequestSent:vector(packetBytes) ETV
attr source arpRequestSent
attr title "ARP request sent, vector(packetBytes)"
vector 73 XHost_SpineLeaf_Network.leaf[4].H[1].ipv4.arp arpRequestSent:vector(packetBytes) ETV
attr source arpRequestSent
attr title "ARP request sent, vector(packetBytes)"
vector 74 XHost_SpineLeaf_Network.leaf[5].H[0].ipv4.arp arpRequestSent:vector(packetBytes) ETV
attr source arpRequestSent
attr title "ARP request sent, vector(packetBytes)"
vector 75 XHost_SpineLeaf_Network.leaf[5].H[1].ipv4.arp arpRequestSent:vector(packetBytes) ETV
attr source arpRequestSent
attr title "ARP request sent, vector(packetBytes)"
vector 76 XHost_SpineLeaf_Network.leaf[6].H[0].ipv4.arp arpRequestSent:vector(packetBytes) ETV
attr source arpRequestSent
attr title "ARP request sent, vector(packetBytes)"
vector 77 XHost_SpineLeaf_Network.leaf[6].H[1].ipv4.arp arpRequestSent:vector(packetBytes) ETV
attr source arpRequestSent
attr title "ARP request sent, vector(packetBytes)"
vector 78 XHost_SpineLeaf_Network.leaf[7].H[0].ipv4.arp arpRequestSent:vector(packetBytes) ETV
attr source arpRequestSent
attr title "ARP request sent, vector(packetBytes)"
vector 79 XHost_SpineLeaf_Network.leaf[7].H[1].ipv4.arp arpRequestSent:vector(packetBytes) ETV
attr source arpRequestSent
attr title "ARP request sent, vector(packetBytes)"
vector 80 XHost_SpineLeaf_Network.leaf[0].H[0].eth[0].encap encapPk:vector(packetBytes) ETV
attr interpolationmode none
attr source encapPk
attr title "packets encapsulated, vector(packetBytes)"
vector 81 XHost_SpineLeaf_Network.leaf[0].H[1].eth[0].encap encapPk:vector(packetBytes) ETV
attr interpolationmode none
attr source encapPk
attr title "packets encapsulated, vector(packetBytes)"
vector 82 XHost_SpineLeaf_Network.leaf[1].H[0].eth[0].encap encapPk:vector(packetBytes) ETV
attr interpolationmode none
attr source encapPk
attr title "packets encapsulated, vector(packetBytes)"
vector 83 XHost_SpineLeaf_Network.leaf[1].H[1].eth[0].encap encapPk:vector(packetBytes) ETV
attr interpolationmode none
attr source encapPk
attr title "packets encapsulated, vector(packetBytes)"
vector 84 XHost_SpineLeaf_Network.leaf[2].H[0].eth[0].encap encapPk:vector(packetBytes) ETV
attr interpolationmode none
attr source encapPk
attr title "packets encapsulated, vector(packetBytes)"
vector 85 XHost_SpineLeaf_Network.leaf[2].H[1].eth[0].encap encapPk:vector(packetBytes) ETV
attr interpolationmode none
attr source encapPk
attr title "packets encapsulated, vector(packetBytes)"
vector 86 XHost_SpineLeaf_Network.leaf[3].H[0].eth[0].encap encapPk:vector(packetBytes) ETV
attr interpolationmode none
attr source encapPk
attr title "packets encapsulated, vector(packetBytes)"
vector 87 XHost_SpineLeaf_Network.leaf[3].H[1].eth[0].encap encapPk:vector(packetBytes) ETV
attr interpolationmode none
attr source encapPk
attr title "packets encapsulated, vector(packetBytes)"
vector 88 XHost_SpineLeaf_Network.leaf[4].H[0].eth[0].encap encapPk:vector(packetBytes) ETV
attr interpolationmode none
attr source encapPk
attr title "packets encapsulated, vector(packetBytes)"
vector 89 XHost_SpineLeaf_Network.leaf[4].H[1].eth[0].encap encapPk:vector(packetBytes) ETV
attr interpolationmode none
attr source encapPk
attr title "packets encapsulated, vector(packetBytes)"
vector 90 XHost_SpineLeaf_Network.leaf[5].H[0].eth[0].encap encapPk:vector(packetBytes) ETV
attr interpolationmode none
attr source encapPk
attr title "packets encapsulated, vector(packetBytes)"
vector 91 XHost_SpineLeaf_Network.leaf[5].H[1].eth[0].encap encapPk:vector(packetBytes) ETV
attr interpolationmode none
attr source encapPk
attr title "packets encapsulated, vector(packetBytes)"
vector 92 XHost_SpineLeaf_Network.leaf[6].H[0].eth[0].encap encapPk:vector(packetBytes) ETV
attr interpolationmode none
attr source encapPk
attr title "packets encapsulated, vector(packetBytes)"
vector 93 XHost_SpineLeaf_Network.leaf[6].H[1].eth[0].encap encapPk:vector(packetBytes) ETV
attr interpolationmode none
attr source encapPk
attr title "packets encapsulated, vector(packetBytes)"
vector 94 XHost_SpineLeaf_Network.leaf[7].H[0].eth[0].encap encapPk:vector(packetBytes) ETV
attr interpolationmode none
attr source encapPk
attr title "packets encapsulated, vector(packetBytes)"
vector 95 XHost_SpineLeaf_Network.leaf[7].H[1].eth[0].encap encapPk:vector(packetBytes) ETV
attr interpolationmode none
attr source encapPk
attr title "packets encapsulated, vector(packetBytes)"
vector 96 XHost_SpineLeaf_Network.leaf[0].H[0].eth[0].mac packetReceivedFromUpper:vector(packetBytes) ETV
attr interpolationmode none
attr source packetReceivedFromUpper
attr title "packet bytes from higher layer, vector(packetBytes)"
vector 97 XHost_SpineLeaf_Network.leaf[0].H[0].eth[0].mac.queue packetPushed:vector(packetBytes) ETV
attr interpolationmode none
attr title "packet pushed, vector(packetBytes)"
vector 98 XHost_SpineLeaf_Network.leaf[0].H[0].eth[0].mac.queue queueLength:vector ETV
attr interpolationmode sample-hold
attr source "count(packetPushed) - count(packetPopped) - count(packetRemoved) - count(packetDropped)"
attr title "queue length, vector"
vector 99 XHost_SpineLeaf_Network.leaf[0].H[0].eth[0].mac.queue packetPopped:vector(packetBytes) ETV
attr interpolationmode none
attr title "packet popped, vector(packetBytes)"
vector 100 XHost_SpineLeaf_Network.leaf[0].H[0].eth[0].mac.queue queueingTime:vector ETV
attr interpolationmode none
attr source queueingTime(packetPopped)
attr title "queueing times, vector"
attr unit s
vector 101 XHost_SpineLeaf_Network.leaf[0].H[1].eth[0].mac packetReceivedFromUpper:vector(packetBytes) ETV
attr interpolationmode none
attr source packetReceivedFromUpper
attr title "packet bytes from higher layer, vector(packetBytes)"
vector 102 XHost_SpineLeaf_Network.leaf[0].H[1].eth[0].mac.queue packetPushed:vector(packetBytes) ETV
attr interpolationmode none
attr title "packet pushed, vector(packetBytes)"
vector 103 XHost_SpineLeaf_Network.leaf[0].H[1].eth[0].mac.queue queueLength:vector ETV
attr interpolationmode sample-hold
attr source "count(packetPushed) - count(packetPopped) - count(packetRemoved) - count(packetDropped)"
attr title "queue length, vector"
vector 104 XHost_SpineLeaf_Network.leaf[0].H[1].eth[0].mac.queue packetPopped:vector(packetBytes) ETV
attr interpolationmode none
attr title "packet popped, vector(packetBytes)"
vector 105 XHost_SpineLeaf_Network.leaf[0].H[1].eth[0].mac.queue queueingTime:vector ETV
attr interpolationmode none
attr source queueingTime(packetPopped)
attr title "queueing times, vector"
attr unit s
vector 106 XHost_SpineLeaf_Network.leaf[1].H[0].eth[0].mac packetReceivedFromUpper:vector(packetBytes) ETV
attr interpolationmode none
attr source packetReceivedFromUpper
attr title "packet bytes from higher layer, vector(packetBytes)"
vector 107 XHost_SpineLeaf_Network.leaf[1].H[0].eth[0].mac.queue packetPushed:vector(packetBytes) ETV
attr interpolationmode none
attr title "packet pushed, vector(packetBytes)"
vector 108 XHost_SpineLeaf_Network.leaf[1].H[0].eth[0].mac.queue queueLength:vector ETV
attr interpolationmode sample-hold
attr source "count(packetPushed) - count(packetPopped) - count(packetRemoved) - count(packetDropped)"
attr title "queue length, vector"
vector 109 XHost_SpineLeaf_Network.leaf[1].H[0].eth[0].mac.queue packetPopped:vector(packetBytes) ETV
attr interpolationmode none
attr title "packet popped, vector(packetBytes)"
vector 110 XHost_SpineLeaf_Network.leaf[1].H[0].eth[0].mac.queue queueingTime:vector ETV
attr interpolationmode none
attr source queueingTime(packetPopped)
attr title "queueing times, vector"
attr unit s
vector 111 XHost_SpineLeaf_Network.leaf[1].H[1].eth[0].mac packetReceivedFromUpper:vector(packetBytes) ETV
attr interpolationmode none
attr source packetReceivedFromUpper
attr title "packet bytes from higher layer, vector(packetBytes)"
vector 112 XHost_SpineLeaf_Network.leaf[1].H[1].eth[0].mac.queue packetPushed:vector(packetBytes) ETV
attr interpolationmode none
attr title "packet pushed, vector(packetBytes)"
vector 113 XHost_SpineLeaf_Network.leaf[1].H[1].eth[0].mac.queue queueLength:vector ETV
attr interpolationmode sample-hold
attr source "count(packetPushed) - count(packetPopped) - count(packetRemoved) - count(packetDropped)"
attr title "queue length, vector"
vector 114 XHost_SpineLeaf_Network.leaf[1].H[1].eth[0].mac.queue packetPopped:vector(packetBytes) ETV
attr interpolationmode none
attr title "packet popped, vector(packetBytes)"
vector 115 XHost_SpineLeaf_Network.leaf[1].H[1].eth[0].mac.queue queueingTime:vector ETV
attr interpolationmode none
attr source queueingTime(packetPopped)
attr title "queueing times, vector"
attr unit s
vector 116 XHost_SpineLeaf_Network.leaf[2].H[0].eth[0].mac packetReceivedFromUpper:vector(packetBytes) ETV
attr interpolationmode none
attr source packetReceivedFromUpper
attr title "packet bytes from higher layer, vector(packetBytes)"
vector 117 XHost_SpineLeaf_Network.leaf[2].H[0].eth[0].mac.queue packetPushed:vector(packetBytes) ETV
attr interpolationmode none
attr title "packet pushed, vector(packetBytes)"
vector 118 XHost_SpineLeaf_Network.leaf[2].H[0].eth[0].mac.queue queueLength:vector ETV
attr interpolationmode sample-hold
attr source "count(packetPushed) - count(packetPopped) - count(packetRemoved) - count(packetDropped)"
attr title "queue length, vector"
vector 119 XHost_SpineLeaf_Network.leaf[2].H[0].eth[0].mac.queue packetPopped:vector(packetBytes) ETV
attr interpolationmode none
attr title "packet popped, vector(packetBytes)"
vector 120 XHost_SpineLeaf_Network.leaf[2].H[0].eth[0].mac.queue queueingTime:vector ETV
attr interpolationmode none
attr source queueingTime(packetPopped)
attr title "queueing times, vector"
attr unit s
vector 121 XHost_SpineLeaf_Network.leaf[2].H[1].eth[0].mac packetReceivedFromUpper:vector(packetBytes) ETV
attr interpolationmode none
attr source packetReceivedFromUpper
attr title "packet bytes from higher layer, vector(packetBytes)"
vector 122 XHost_SpineLeaf_Network.leaf[2].H[1].eth[0].mac.queue packetPushed:vector(packetBytes) ETV
attr interpolationmode none
attr title "packet pushed, vector(packetBytes)"
vector 123 XHost_SpineLeaf_Network.leaf[2].H[1].eth[0].mac.queue queueLength:vector ETV
attr interpolationmode sample-hold
attr source "count(packetPushed) - count(packetPopped) - count(packetRemoved) - count(packetDropped)"
attr title "queue length, vector"
vector 124 XHost_SpineLeaf_Network.leaf[2].H[1].eth[0].mac.queue packetPopped:vector(packetBytes) ETV
attr interpolationmode none
attr title "packet popped, vector(packetBytes)"
vector 125 XHost_SpineLeaf_Network.leaf[2].H[1].eth[0].mac.queue queueingTime:vector ETV
attr interpolationmode none
attr source queueingTime(packetPopped)
attr title "queueing times, vector"
attr unit s
vector 126 XHost_SpineLeaf_Network.leaf[3].H[0].eth[0].mac packetReceivedFromUpper:vector(packetBytes) ETV
attr interpolationmode none
attr source packetReceivedFromUpper
attr title "packet bytes from higher layer, vector(packetBytes)"
vector 127 XHost_SpineLeaf_Network.leaf[3].H[0].eth[0].mac.queue packetPushed:vector(packetBytes) ETV
attr interpolationmode none
attr title "packet pushed, vector(packetBytes)"
vector 128 XHost_SpineLeaf_Network.leaf[3].H[0].eth[0].mac.queue queueLength:vector ETV
attr interpolationmode sample-hold
attr source "count(packetPushed) - count(packetPopped) - count(packetRemoved) - count(packetDropped)"
attr title "queue length, vector"
vector 129 XHost_SpineLeaf_Network.leaf[3].H[0].eth[0].mac.queue packetPopped:vector(packetBytes) ETV
attr interpolationmode none
attr title "packet popped, vector(packetBytes)"
vector 130 XHost_SpineLeaf_Network.leaf[3].H[0].eth[0].mac.queue queueingTime:vector ETV
attr interpolationmode none
attr source queueingTime(packetPopped)
attr title "queueing times, vector"
attr unit s
vector 131 XHost_SpineLeaf_Network.leaf[3].H[1].eth[0].mac packetReceivedFromUpper:vector(packetBytes) ETV
attr interpolationmode none
attr source packetReceivedFromUpper
attr title "packet bytes from higher layer, vector(packetBytes)"
vector 132 XHost_SpineLeaf_Network.leaf[3].H[1].eth[0].mac.queue packetPushed:vector(packetBytes) ETV
attr interpolationmode none
attr title "packet pushed, vector(packetBytes)"
vector 133 XHost_SpineLeaf_Network.leaf[3].H[1].eth[0].mac.queue queueLength:vector ETV
attr interpolationmode sample-hold
attr source "count(packetPushed) - count(packetPopped) - count(packetRemoved) - count(packetDropped)"
attr title "queue length, vector"
vector 134 XHost_SpineLeaf_Network.leaf[3].H[1].eth[0].mac.queue packetPopped:vector(packetBytes) ETV
attr interpolationmode none
attr title "packet popped, vector(packetBytes)"
vector 135 XHost_SpineLeaf_Network.leaf[3].H[1].eth[0].mac.queue queueingTime:vector ETV
attr interpolationmode none
attr source queueingTime(packetPopped)
attr title "queueing times, vector"
attr unit s
vector 136 XHost_SpineLeaf_Network.leaf[4].H[0].eth[0].mac packetReceivedFromUpper:vector(packetBytes) ETV
attr interpolationmode none
attr source packetReceivedFromUpper
attr title "packet bytes from higher layer, vector(packetBytes)"
vector 137 XHost_SpineLeaf_Network.leaf[4].H[0].eth[0].mac.queue packetPushed:vector(packetBytes) ETV
attr interpolationmode none
attr title "packet pushed, vector(packetBytes)"
vector 138 XHost_SpineLeaf_Network.leaf[4].H[0].eth[0].mac.queue queueLength:vector ETV
attr interpolationmode sample-hold
attr source "count(packetPushed) - count(packetPopped) - count(packetRemoved) - count(packetDropped)"
attr title "queue length, vector"
vector 139 XHost_SpineLeaf_Network.leaf[4].H[0].eth[0].mac.queue packetPopped:vector(packetBytes) ETV
attr interpolationmode none
attr title "packet popped, vector(packetBytes)"
vector 140 XHost_SpineLeaf_Network.leaf[4].H[0].eth[0].mac.queue queueingTime:vector ETV
attr interpolationmode none
attr source queueingTime(packetPopped)
attr title "queueing times, vector"
attr unit s
vector 141 XHost_SpineLeaf_Network.leaf[4].H[1].eth[0].mac packetReceivedFromUpper:vector(packetBytes) ETV
attr interpolationmode none
attr source packetReceivedFromUpper
attr title "packet bytes from higher layer, vector(packetBytes)"
vector 142 XHost_SpineLeaf_Network.leaf[4].H[1].eth[0].mac.queue packetPushed:vector(packetBytes) ETV
attr interpolationmode none
attr title "packet pushed, vector(packetBytes)"
vector 143 XHost_SpineLeaf_Network.leaf[4].H[1].eth[0].mac.queue queueLength:vector ETV
attr interpolationmode sample-hold
attr source "count(packetPushed) - count(packetPopped) - count(packetRemoved) - count(packetDropped)"
attr title "queue length, vector"
vector 144 XHost_SpineLeaf_Network.leaf[4].H[1].eth[0].mac.queue packetPopped:vector(packetBytes) ETV
attr interpolationmode none
attr title "packet popped, vector(packetBytes)"
vector 145 XHost_SpineLeaf_Network.leaf[4].H[1].eth[0].mac.queue queueingTime:vector ETV
attr interpolationmode none
attr source queueingTime(packetPopped)
attr title "queueing times, vector"
attr unit s
vector 146 XHost_SpineLeaf_Network.leaf[5].H[0].eth[0].mac packetReceivedFromUpper:vector(packetBytes) ETV
attr interpolationmode none
attr source packetReceivedFromUpper
attr title "packet bytes from higher layer, vector(packetBytes)"
vector 147 XHost_SpineLeaf_Network.leaf[5].H[0].eth[0].mac.queue packetPushed:vector(packetBytes) ETV
attr interpolationmode none
attr title "packet pushed, vector(packetBytes)"
vector 148 XHost_SpineLeaf_Network.leaf[5].H[0].eth[0].mac.queue queueLength:vector ETV
attr interpolationmode sample-hold
attr source "count(packetPushed) - count(packetPopped) - count(packetRemoved) - count(packetDropped)"
attr title "queue length, vector"
vector 149 XHost_SpineLeaf_Network.leaf[5].H[0].eth[0].mac.queue packetPopped:vector(packetBytes) ETV
attr interpolationmode none
attr title "packet popped, vector(packetBytes)"
vector 150 XHost_SpineLeaf_Network.leaf[5].H[0].eth[0].mac.queue queueingTime:vector ETV
attr interpolationmode none
attr source queueingTime(packetPopped)
attr title "queueing times, vector"
attr unit s
vector 151 XHost_SpineLeaf_Network.leaf[5].H[1].eth[0].mac packetReceivedFromUpper:vector(packetBytes) ETV
attr interpolationmode none
attr source packetReceivedFromUpper
attr title "packet bytes from higher layer, vector(packetBytes)"
vector 152 XHost_SpineLeaf_Network.leaf[5].H[1].eth[0].mac.queue packetPushed:vector(packetBytes) ETV
attr interpolationmode none
attr title "packet pushed, vector(packetBytes)"
vector 153 XHost_SpineLeaf_Network.leaf[5].H[1].eth[0].mac.queue queueLength:vector ETV
attr interpolationmode sample-hold
attr source "count(packetPushed) - count(packetPopped) - count(packetRemoved) - count(packetDropped)"
attr title "queue length, vector"
vector 154 XHost_SpineLeaf_Network.leaf[5].H[1].eth[0].mac.queue packetPopped:vector(packetBytes) ETV
attr interpolationmode none
attr title "packet popped, vector(packetBytes)"
vector 155 XHost_SpineLeaf_Network.leaf[5].H[1].eth[0].mac.queue queueingTime:vector ETV
attr interpolationmode none
attr source queueingTime(packetPopped)
attr title "queueing times, vector"
attr unit s
vector 156 XHost_SpineLeaf_Network.leaf[6].H[0].eth[0].mac packetReceivedFromUpper:vector(packetBytes) ETV
attr interpolationmode none
attr source packetReceivedFromUpper
attr title "packet bytes from higher layer, vector(packetBytes)"
vector 157 XHost_SpineLeaf_Network.leaf[6].H[0].eth[0].mac.queue packetPushed:vector(packetBytes) ETV
attr interpolationmode none
attr title "packet pushed, vector(packetBytes)"
vector 158 XHost_SpineLeaf_Network.leaf[6].H[0].eth[0].mac.queue queueLength:vector ETV
attr interpolationmode sample-hold
attr source "count(packetPushed) - count(packetPopped) - count(packetRemoved) - count(packetDropped)"
attr title "queue length, vector"
vector 159 XHost_SpineLeaf_Network.leaf[6].H[0].eth[0].mac.queue packetPopped:vector(packetBytes) ETV
attr interpolationmode none
attr title "packet popped, vector(packetBytes)"
vector 160 XHost_SpineLeaf_Network.leaf[6].H[0].eth[0].mac.queue queueingTime:vector ETV
attr interpolationmode none
attr source queueingTime(packetPopped)
attr title "queueing times, vector"
attr unit s
vector 161 XHost_SpineLeaf_Network.leaf[6].H[1].eth[0].mac packetReceivedFromUpper:vector(packetBytes) ETV
attr interpolationmode none
attr source packetReceivedFromUpper
attr title "packet bytes from higher layer, vector(packetBytes)"
vector 162 XHost_SpineLeaf_Network.leaf[6].H[1].eth[0].mac.queue packetPushed:vector(packetBytes) ETV
attr interpolationmode none
attr title "packet pushed, vector(packetBytes)"
vector 163 XHost_SpineLeaf_Network.leaf[6].H[1].eth[0].mac.queue queueLength:vector ETV
attr interpolationmode sample-hold
attr source "count(packetPushed) - count(packetPopped) - count(packetRemoved) - count(packetDropped)"
attr title "queue length, vector"
vector 164 XHost_SpineLeaf_Network.leaf[6].H[1].eth[0].mac.queue packetPopped:vector(packetBytes) ETV
attr interpolationmode none
attr title "packet popped, vector(packetBytes)"
vector 165 XHost_SpineLeaf_Network.leaf[6].H[1].eth[0].mac.queue queueingTime:vector ETV
attr interpolationmode none
attr source queueingTime(packetPopped)
attr title "queueing times, vector"
attr unit s
vector 166 XHost_SpineLeaf_Network.leaf[7].H[0].eth[0].mac packetReceivedFromUpper:vector(packetBytes) ETV
attr interpolationmode none
attr source packetReceivedFromUpper
attr title "packet bytes from higher layer, vector(packetBytes)"
vector 167 XHost_SpineLeaf_Network.leaf[7].H[0].eth[0].mac.queue packetPushed:vector(packetBytes) ETV
attr interpolationmode none
attr title "packet pushed, vector(packetBytes)"
vector 168 XHost_SpineLeaf_Network.leaf[7].H[0].eth[0].mac.queue queueLength:vector ETV
attr interpolationmode sample-hold
attr source "count(packetPushed) - count(packetPopped) - count(packetRemoved) - count(packetDropped)"
attr title "queue length, vector"
vector 169 XHost_SpineLeaf_Network.leaf[7].H[0].eth[0].mac.queue packetPopped:vector(packetBytes) ETV
attr interpolationmode none
attr title "packet popped, vector(packetBytes)"
vector 170 XHost_SpineLeaf_Network.leaf[7].H[0].eth[0].mac.queue queueingTime:vector ETV
attr interpolationmode none
attr source queueingTime(packetPopped)
attr title "queueing times, vector"
attr unit s
vector 171 XHost_SpineLeaf_Network.leaf[7].H[1].eth[0].mac packetReceivedFromUpper:vector(packetBytes) ETV
attr interpolationmode none
attr source packetReceivedFromUpper
attr title "packet bytes from higher layer, vector(packetBytes)"
vector 172 XHost_SpineLeaf_Network.leaf[7].H[1].eth[0].mac.queue packetPushed:vector(packetBytes) ETV
attr interpolationmode none
attr title "packet pushed, vector(packetBytes)"
vector 173 XHost_SpineLeaf_Network.leaf[7].H[1].eth[0].mac.queue queueLength:vector ETV
attr interpolationmode sample-hold
attr source "count(packetPushed) - count(packetPopped) - count(packetRemoved) - count(packetDropped)"
attr title "queue length, vector"
vector 174 XHost_SpineLeaf_Network.leaf[7].H[1].eth[0].mac.queue packetPopped:vector(packetBytes) ETV
attr interpolationmode none
attr title "packet popped, vector(packetBytes)"
vector 175 XHost_SpineLeaf_Network.leaf[7].H[1].eth[0].mac.queue queueingTime:vector ETV
attr interpolationmode none
attr source queueingTime(packetPopped)
attr title "queueing times, vector"
attr unit s
vector 176 XHost_SpineLeaf_Network.leaf[0].H[0].eth[0].mac txPk:vector(packetBytes) ETV
attr interpolationmode none
attr source packetSentToLower
attr title "packets transmitted, vector(packetBytes)"
vector 177 XHost_SpineLeaf_Network.leaf[0].H[1].eth[0].mac txPk:vector(packetBytes) ETV
attr interpolationmode none
attr source packetSentToLower
attr title "packets transmitted, vector(packetBytes)"
vector 178 XHost_SpineLeaf_Network.leaf[1].H[0].eth[0].mac txPk:vector(packetBytes) ETV
attr interpolationmode none
attr source packetSentToLower
attr title "packets transmitted, vector(packetBytes)"
vector 179 XHost_SpineLeaf_Network.leaf[1].H[1].eth[0].mac txPk:vector(packetBytes) ETV
attr interpolationmode none
attr source packetSentToLower
attr title "packets transmitted, vector(packetBytes)"
vector 180 XHost_SpineLeaf_Network.leaf[2].H[0].eth[0].mac txPk:vector(packetBytes) ETV
attr interpolationmode none
attr source packetSentToLower
attr title "packets transmitted, vector(packetBytes)"
vector 181 XHost_SpineLeaf_Network.leaf[2].H[1].eth[0].mac txPk:vector(packetBytes) ETV
attr interpolationmode none
attr source packetSentToLower
attr title "packets transmitted, vector(packetBytes)"
vector 182 XHost_SpineLeaf_Network.leaf[3].H[0].eth[0].mac txPk:vector(packetBytes) ETV
attr interpolationmode none
attr source packetSentToLower
attr title "packets transmitted, vector(packetBytes)"
vector 183 XHost_SpineLeaf_Network.leaf[3].H[1].eth[0].mac txPk:vector(packetBytes) ETV
attr interpolationmode none
attr source packetSentToLower
attr title "packets transmitted, vector(packetBytes)"
vector 184 XHost_SpineLeaf_Network.leaf[4].H[0].eth[0].mac txPk:vector(packetBytes) ETV
attr interpolationmode none
attr source packetSentToLower
attr title "packets transmitted, vector(packetBytes)"
vector 185 XHost_SpineLeaf_Network.leaf[4].H[1].eth[0].mac txPk:vector(packetBytes) ETV
attr interpolationmode none
attr source packetSentToLower
attr title "packets transmitted, vector(packetBytes)"
vector 186 XHost_SpineLeaf_Network.leaf[5].H[0].eth[0].mac txPk:vector(packetBytes) ETV
attr interpolationmode none
attr source packetSentToLower
attr title "packets transmitted, vector(packetBytes)"
vector 187 XHost_SpineLeaf_Network.leaf[5].H[1].eth[0].mac txPk:vector(packetBytes) ETV
attr interpolationmode none
attr source packetSentToLower
attr title "packets transmitted, vector(packetBytes)"
vector 188 XHost_SpineLeaf_Network.leaf[6].H[0].eth[0].mac txPk:vector(packetBytes) ETV
attr interpolationmode none
attr source packetSentToLower
attr title "packets transmitted, vector(packetBytes)"
vector 189 XHost_SpineLeaf_Network.leaf[6].H[1].eth[0].mac txPk:vector(packetBytes) ETV
attr interpolationmode none
attr source packetSentToLower
attr title "packets transmitted, vector(packetBytes)"
vector 190 XHost_SpineLeaf_Network.leaf[7].H[0].eth[0].mac txPk:vector(packetBytes) ETV
attr interpolationmode none
attr source packetSentToLower
attr title "packets transmitted, vector(packetBytes)"
vector 191 XHost_SpineLeaf_Network.leaf[7].H[1].eth[0].mac txPk:vector(packetBytes) ETV
attr interpolationmode none
attr source packetSentToLower
attr title "packets transmitted, vector(packetBytes)"
vector 192 XHost_SpineLeaf_Network.leaf[0].topOfRack.eth[5].mac rxPkOk:vector(packetBytes) ETV
attr interpolationmode none
attr source rxPkOk
attr title "packets received OK, vector(packetBytes)"
vector 193 XHost_SpineLeaf_Network.leaf[0].topOfRack.eth[5].mac passedUpPk:vector(packetBytes) ETV
attr interpolationmode none
attr source packetSentToUpper
attr title "packets passed to higher layer, vector(packetBytes)"
vector 194 XHost_SpineLeaf_Network.leaf[0].topOfRack.eth[6].mac rxPkOk:vector(packetBytes) ETV
attr interpolationmode none
attr source rxPkOk
attr title "packets received OK, vector(packetBytes)"
vector 195 XHost_SpineLeaf_Network.leaf[0].topOfRack.eth[6].mac passedUpPk:vector(packetBytes) ETV
attr interpolationmode none
attr source packetSentToUpper
attr title "packets passed to higher layer, vector(packetBytes)"
vector 196 XHost_SpineLeaf_Network.leaf[1].topOfRack.eth[5].mac rxPkOk:vector(packetBytes) ETV
attr interpolationmode none
attr source rxPkOk
attr title "packets received OK, vector(packetBytes)"
vector 197 XHost_SpineLeaf_Network.leaf[1].topOfRack.eth[5].mac passedUpPk:vector(packetBytes) ETV
attr interpolationmode none
attr source packetSentToUpper
attr title "packets passed to higher layer, vector(packetBytes)"
vector 198 XHost_SpineLeaf_Network.leaf[1].topOfRack.eth[6].mac rxPkOk:vector(packetBytes) ETV
attr interpolationmode none
attr source rxPkOk
attr title "packets received OK, vector(packetBytes)"
vector 199 XHost_SpineLeaf_Network.leaf[1].topOfRack.eth[6].mac passedUpPk:vector(packetBytes) ETV
attr interpolationmode none
attr source packetSentToUpper
attr title "packets passed to higher layer, vector(packetBytes)"
vector 200 XHost_SpineLeaf_Network.leaf[2].topOfRack.eth[5].mac rxPkOk:vector(packetBytes) ETV
attr interpolationmode none
attr source rxPkOk
attr title "packets received OK, vector(packetBytes)"
vector 201 XHost_SpineLeaf_Network.leaf[2].topOfRack.eth[5].mac passedUpPk:vector(packetBytes) ETV
attr interpolationmode none
attr source packetSentToUpper
attr title "packets passed to higher layer, vector(packetBytes)"
vector 202 XHost_SpineLeaf_Network.leaf[2].topOfRack.eth[6].mac rxPkOk:vector(packetBytes) ETV
attr interpolationmode none
attr source rxPkOk
attr title "packets received OK, vector(packetBytes)"
vector 203 XHost_SpineLeaf_Network.leaf[2].topOfRack.eth[6].mac passedUpPk:vector(packetBytes) ETV
attr interpolationmode none
attr source packetSentToUpper
attr title "packets passed to higher layer, vector(packetBytes)"
vector 204 XHost_SpineLeaf_Network.leaf[3].topOfRack.eth[5].mac rxPkOk:vector(packetBytes) ETV
attr interpolationmode none
attr source rxPkOk
attr title "packets received OK, vector(packetBytes)"
vector 205 XHost_SpineLeaf_Network.leaf[3].topOfRack.eth[5].mac passedUpPk:vector(packetBytes) ETV
attr interpolationmode none
attr source packetSentToUpper
attr title "packets passed to higher layer, vector(packetBytes)"
vector 206 XHost_SpineLeaf_Network.leaf[3].topOfRack.eth[6].mac rxPkOk:vector(packetBytes) ETV
attr interpolationmode none
attr source rxPkOk
attr title "packets received OK, vector(packetBytes)"
vector 207 XHost_SpineLeaf_Network.leaf[3].topOfRack.eth[6].mac passedUpPk:vector(packetBytes) ETV
attr interpolationmode none
attr source packetSentToUpper
attr title "packets passed to higher layer, vector(packetBytes)"
vector 208 XHost_SpineLeaf_Network.leaf[4].topOfRack.eth[5].mac rxPkOk:vector(packetBytes) ETV
attr interpolationmode none
attr source rxPkOk
attr title "packets received OK, vector(packetBytes)"
vector 209 XHost_SpineLeaf_Network.leaf[4].topOfRack.eth[5].mac passedUpPk:vector(packetBytes) ETV
attr interpolationmode none
attr source packetSentToUpper
attr title "packets passed to higher layer, vector(packetBytes)"
vector 210 XHost_SpineLeaf_Network.leaf[4].topOfRack.eth[6].mac rxPkOk:vector(packetBytes) ETV
attr interpolationmode none
attr source rxPkOk
attr title "packets received OK, vector(packetBytes)"
vector 211 XHost_SpineLeaf_Network.leaf[4].topOfRack.eth[6].mac passedUpPk:vector(packetBytes) ETV
attr interpolationmode none
attr source packetSentToUpper
attr title "packets passed to higher layer, vector(packetBytes)"
vector 212 XHost_SpineLeaf_Network.leaf[5].topOfRack.eth[5].mac rxPkOk:vector(packetBytes) ETV
attr interpolationmode none
attr source rxPkOk
attr title "packets received OK, vector(packetBytes)"
vector 213 XHost_SpineLeaf_Network.leaf[5].topOfRack.eth[5].mac passedUpPk:vector(packetBytes) ETV
attr interpolationmode none
attr source packetSentToUpper
attr title "packets passed to higher layer, vector(packetBytes)"
vector 214 XHost_SpineLeaf_Network.leaf[5].topOfRack.eth[6].mac rxPkOk:vector(packetBytes) ETV
attr interpolationmode none
attr source rxPkOk
attr title "packets received OK, vector(packetBytes)"
vector 215 XHost_SpineLeaf_Network.leaf[5].topOfRack.eth[6].mac passedUpPk:vector(packetBytes) ETV
attr interpolationmode none
attr source packetSentToUpper
attr title "packets passed to higher layer, vector(packetBytes)"
vector 216 XHost_SpineLeaf_Network.leaf[6].topOfRack.eth[5].mac rxPkOk:vector(packetBytes) ETV
attr interpolationmode none
attr source rxPkOk
attr title "packets received OK, vector(packetBytes)"
vector 217 XHost_SpineLeaf_Network.leaf[6].topOfRack.eth[5].mac passedUpPk:vector(packetBytes) ETV
attr interpolationmode none
attr source packetSentToUpper
attr title "packets passed to higher layer, vector(packetBytes)"
vector 218 XHost_SpineLeaf_Network.leaf[6].topOfRack.eth[6].mac rxPkOk:vector(packetBytes) ETV
attr interpolationmode none
attr source rxPkOk
attr title "packets received OK, vector(packetBytes)"
vector 219 XHost_SpineLeaf_Network.leaf[6].topOfRack.eth[6].mac passedUpPk:vector(packetBytes) ETV
attr interpolationmode none
attr source packetSentToUpper
attr title "packets passed to higher layer, vector(packetBytes)"
vector 220 XHost_SpineLeaf_Network.leaf[7].topOfRack.eth[5].mac rxPkOk:vector(packetBytes) ETV
attr interpolationmode none
attr source rxPkOk
attr title "packets received OK, vector(packetBytes)"
vector 221 XHost_SpineLeaf_Network.leaf[7].topOfRack.eth[5].mac passedUpPk:vector(packetBytes) ETV
attr interpolationmode none
attr source packetSentToUpper
attr title "packets passed to higher layer, vector(packetBytes)"
vector 222 XHost_SpineLeaf_Network.leaf[7].topOfRack.eth[6].mac rxPkOk:vector(packetBytes) ETV
attr interpolationmode none
attr source rxPkOk
attr title "packets received OK, vector(packetBytes)"
vector 223 XHost_SpineLeaf_Network.leaf[7].topOfRack.eth[6].mac passedUpPk:vector(packetBytes) ETV
attr interpolationmode none
attr source packetSentToUpper
attr title "packets passed to higher layer, vector(packetBytes)"
vector 224 XHost_SpineLeaf_Network.leaf[0].topOfRack.eth[5].encap decapPk:vector(packetBytes) ETV
attr interpolationmode none
attr source decapPk
attr title "packets decapsulated, vector(packetBytes)"
vector 225 XHost_SpineLeaf_Network.leaf[0].topOfRack.eth[6].encap decapPk:vector(packetBytes) ETV
attr interpolationmode none
attr source decapPk
attr title "packets decapsulated, vector(packetBytes)"
vector 226 XHost_SpineLeaf_Network.leaf[1].topOfRack.eth[5].encap decapPk:vector(packetBytes) ETV
attr interpolationmode none
attr source decapPk
attr title "packets decapsulated, vector(packetBytes)"
vector 227 XHost_SpineLeaf_Network.leaf[1].topOfRack.eth[6].encap decapPk:vector(packetBytes) ETV
attr interpolationmode none
attr source decapPk
attr title "packets decapsulated, vector(packetBytes)"
vector 228 XHost_SpineLeaf_Network.leaf[2].topOfRack.eth[5].encap decapPk:vector(packetBytes) ETV
attr interpolationmode none
attr source decapPk
attr title "packets decapsulated, vector(packetBytes)"
vector 229 XHost_SpineLeaf_Network.leaf[2].topOfRack.eth[6].encap decapPk:vector(packetBytes) ETV
attr interpolationmode none
attr source decapPk
attr title "packets decapsulated, vector(packetBytes)"
vector 230 XHost_SpineLeaf_Network.leaf[3].topOfRack.eth[5].encap decapPk:vector(packetBytes) ETV
attr interpolationmode none
attr source decapPk
attr title "packets decapsulated, vector(packetBytes)"
vector 231 XHost_SpineLeaf_Network.leaf[3].topOfRack.eth[6].encap decapPk:vector(packetBytes) ETV
attr interpolationmode none
attr source decapPk
attr title "packets decapsulated, vector(packetBytes)"
vector 232 XHost_SpineLeaf_Network.leaf[4].topOfRack.eth[5].encap decapPk:vector(packetBytes) ETV
attr interpolationmode none
attr source decapPk
attr title "packets decapsulated, vector(packetBytes)"
vector 233 XHost_SpineLeaf_Network.leaf[4].topOfRack.eth[6].encap decapPk:vector(packetBytes) ETV
attr interpolationmode none
attr source decapPk
attr title "packets decapsulated, vector(packetBytes)"
vector 234 XHost_SpineLeaf_Network.leaf[5].topOfRack.eth[5].encap decapPk:vector(packetBytes) ETV
attr interpolationmode none
attr source decapPk
attr title "packets decapsulated, vector(packetBytes)"
vector 235 XHost_SpineLeaf_Network.leaf[5].topOfRack.eth[6].encap decapPk:vector(packetBytes) ETV
attr interpolationmode none
attr source decapPk
attr title "packets decapsulated, vector(packetBytes)"
vector 236 XHost_SpineLeaf_Network.leaf[6].topOfRack.eth[5].encap decapPk:vector(packetBytes) ETV
attr interpolationmode none
attr source decapPk
attr title "packets decapsulated, vector(packetBytes)"
vector 237 XHost_SpineLeaf_Network.leaf[6].topOfRack.eth[6].encap decapPk:vector(packetBytes) ETV
attr interpolationmode none
attr source decapPk
attr title "packets decapsulated, vector(packetBytes)"
vector 238 XHost_SpineLeaf_Network.leaf[7].topOfRack.eth[5].encap decapPk:vector(packetBytes) ETV
attr interpolationmode none
attr source decapPk
attr title "packets decapsulated, vector(packetBytes)"
vector 239 XHost_SpineLeaf_Network.leaf[7].topOfRack.eth[6].encap decapPk:vector(packetBytes) ETV
attr interpolationmode none
attr source decapPk
attr title "packets decapsulated, vector(packetBytes)"
vector 240 XHost_SpineLeaf_Network.leaf[0].topOfRack.ipv4.arp arpReplySent:vector(packetBytes) ETV
attr source arpReplySent
attr title "ARP replies sent, vector(packetBytes)"
vector 241 XHost_SpineLeaf_Network.leaf[1].topOfRack.ipv4.arp arpReplySent:vector(packetBytes) ETV
attr source arpReplySent
attr title "ARP replies sent, vector(packetBytes)"
vector 242 XHost_SpineLeaf_Network.leaf[2].topOfRack.ipv4.arp arpReplySent:vector(packetBytes) ETV
attr source arpReplySent
attr title "ARP replies sent, vector(packetBytes)"
vector 243 XHost_SpineLeaf_Network.leaf[3].topOfRack.ipv4.arp arpReplySent:vector(packetBytes) ETV
attr source arpReplySent
attr title "ARP replies sent, vector(packetBytes)"
vector 244 XHost_SpineLeaf_Network.leaf[4].topOfRack.ipv4.arp arpReplySent:vector(packetBytes) ETV
attr source arpReplySent
attr title "ARP replies sent, vector(packetBytes)"
vector 245 XHost_SpineLeaf_Network.leaf[5].topOfRack.ipv4.arp arpReplySent:vector(packetBytes) ETV
attr source arpReplySent
attr title "ARP replies sent, vector(packetBytes)"
vector 246 XHost_SpineLeaf_Network.leaf[6].topOfRack.ipv4.arp arpReplySent:vector(packetBytes) ETV
attr source arpReplySent
attr title "ARP replies sent, vector(packetBytes)"
vector 247 XHost_SpineLeaf_Network.leaf[7].topOfRack.ipv4.arp arpReplySent:vector(packetBytes) ETV
attr source arpReplySent
attr title "ARP replies sent, vector(packetBytes)"
vector 248 XHost_SpineLeaf_Network.leaf[0].topOfRack.eth[5].encap encapPk:vector(packetBytes) ETV
attr interpolationmode none
attr source encapPk
attr title "packets encapsulated, vector(packetBytes)"
vector 249 XHost_SpineLeaf_Network.leaf[0].topOfRack.eth[6].encap encapPk:vector(packetBytes) ETV
attr interpolationmode none
attr source encapPk
attr title "packets encapsulated, vector(packetBytes)"
vector 250 XHost_SpineLeaf_Network.leaf[1].topOfRack.eth[5].encap encapPk:vector(packetBytes) ETV
attr interpolationmode none
attr source encapPk
attr title "packets encapsulated, vector(packetBytes)"
vector 251 XHost_SpineLeaf_Network.leaf[1].topOfRack.eth[6].encap encapPk:vector(packetBytes) ETV
attr interpolationmode none
attr source encapPk
attr title "packets encapsulated, vector(packetBytes)"
vector 252 XHost_SpineLeaf_Network.leaf[2].topOfRack.eth[5].encap encapPk:vector(packetBytes) ETV
attr interpolationmode none
attr source encapPk
attr title "packets encapsulated, vector(packetBytes)"
vector 253 XHost_SpineLeaf_Network.leaf[2].topOfRack.eth[6].encap encapPk:vector(packetBytes) ETV
attr interpolationmode none
attr source encapPk
attr title "packets encapsulated, vector(packetBytes)"
vector 254 XHost_SpineLeaf_Network.leaf[3].topOfRack.eth[5].encap encapPk:vector(packetBytes) ETV
attr interpolationmode none
attr source encapPk
attr title "packets encapsulated, vector(packetBytes)"
vector 255 XHost_SpineLeaf_Network.leaf[3].topOfRack.eth[6].encap encapPk:vector(packetBytes) ETV
attr interpolationmode none
attr source encapPk
attr title "packets encapsulated, vector(packetBytes)"
vector 256 XHost_SpineLeaf_Network.leaf[4].topOfRack.eth[5].encap encapPk:vector(packetBytes) ETV
attr interpolationmode none
attr source encapPk
attr title "packets encapsulated, vector(packetBytes)"
vector 257 XHost_SpineLeaf_Network.leaf[4].topOfRack.eth[6].encap encapPk:vector(packetBytes) ETV
attr interpolationmode none
attr source encapPk
attr title "packets encapsulated, vector(packetBytes)"
vector 258 XHost_SpineLeaf_Network.leaf[5].topOfRack.eth[5].encap encapPk:vector(packetBytes) ETV
attr interpolationmode none
attr source encapPk
attr title "packets encapsulated, vector(packetBytes)"
vector 259 XHost_SpineLeaf_Network.leaf[5].topOfRack.eth[6].encap encapPk:vector(packetBytes) ETV
attr interpolationmode none
attr source encapPk
attr title "packets encapsulated, vector(packetBytes)"
vector 260 XHost_SpineLeaf_Network.leaf[6].topOfRack.eth[5].encap encapPk:vector(packetBytes) ETV
attr interpolationmode none
attr source encapPk
attr title "packets encapsulated, vector(packetBytes)"
vector 261 XHost_SpineLeaf_Network.leaf[6].topOfRack.eth[6].encap encapPk:vector(packetBytes) ETV
attr interpolationmode none
attr source encapPk
attr title "packets encapsulated, vector(packetBytes)"
vector 262 XHost_SpineLeaf_Network.leaf[7].topOfRack.eth[5].encap encapPk:vector(packetBytes) ETV
attr interpolationmode none
attr source encapPk
attr title "packets encapsulated, vector(packetBytes)"
vector 263 XHost_SpineLeaf_Network.leaf[7].topOfRack.eth[6].encap encapPk:vector(packetBytes) ETV
attr interpolationmode none
attr source encapPk
attr title "packets encapsulated, vector(packetBytes)"
vector 264 XHost_SpineLeaf_Network.leaf[0].topOfRack.eth[5].mac packetReceivedFromUpper:vector(packetBytes) ETV
attr interpolationmode none
attr source packetReceivedFromUpper
attr title "packet bytes from higher layer, vector(packetBytes)"
vector 265 XHost_SpineLeaf_Network.leaf[0].topOfRack.eth[5].mac.queue packetPushed:vector(packetBytes) ETV
attr interpolationmode none
attr title "packet pushed, vector(packetBytes)"
vector 266 XHost_SpineLeaf_Network.leaf[0].topOfRack.eth[5].mac.queue queueLength:vector ETV
attr interpolationmode sample-hold
attr source "count(packetPushed) - count(packetPopped) - count(packetRemoved) - count(packetDropped)"
attr title "queue length, vector"
vector 267 XHost_SpineLeaf_Network.leaf[0].topOfRack.eth[5].mac.queue packetPopped:vector(packetBytes) ETV
attr interpolationmode none
attr title "packet popped, vector(packetBytes)"
vector 268 XHost_SpineLeaf_Network.leaf[0].topOfRack.eth[5].mac.queue queueingTime:vector ETV
attr interpolationmode none
attr source queueingTime(packetPopped)
attr title "queueing times, vector"
attr unit s
vector 269 XHost_SpineLeaf_Network.leaf[0].topOfRack.eth[6].mac packetReceivedFromUpper:vector(packetBytes) ETV
attr interpolationmode none
attr source packetReceivedFromUpper
attr title "packet bytes from higher layer, vector(packetBytes)"
vector 270 XHost_SpineLeaf_Network.leaf[0].topOfRack.eth[6].mac.queue packetPushed:vector(packetBytes) ETV
attr interpolationmode none
attr title "packet pushed, vector(packetBytes)"
vector 271 XHost_SpineLeaf_Network.leaf[0].topOfRack.eth[6].mac.queue queueLength:vector ETV
attr interpolationmode sample-hold
attr source "count(packetPushed) - count(packetPopped) - count(packetRemoved) - count(packetDropped)"
attr title "queue length, vector"
vector 272 XHost_SpineLeaf_Network.leaf[0].topOfRack.eth[6].mac.queue packetPopped:vector(packetBytes) ETV
attr interpolationmode none
attr title "packet popped, vector(packetBytes)"
vector 273 XHost_SpineLeaf_Network.leaf[0].topOfRack.eth[6].mac.queue queueingTime:vector ETV
attr interpolationmode none
attr source queueingTime(packetPopped)
attr title "queueing times, vector"
attr unit s
vector 274 XHost_SpineLeaf_Network.leaf[1].topOfRack.eth[5].mac packetReceivedFromUpper:vector(packetBytes) ETV
attr interpolationmode none
attr source packetReceivedFromUpper
attr title "packet bytes from higher layer, vector(packetBytes)"
vector 275 XHost_SpineLeaf_Network.leaf[1].topOfRack.eth[5].mac.queue packetPushed:vector(packetBytes) ETV
attr interpolationmode none
attr title "packet pushed, vector(packetBytes)"
vector 276 XHost_SpineLeaf_Network.leaf[1].topOfRack.eth[5].mac.queue queueLength:vector ETV
attr interpolationmode sample-hold
attr source "count(packetPushed) - count(packetPopped) - count(packetRemoved) - count(packetDropped)"
attr title "queue length, vector"
vector 277 XHost_SpineLeaf_Network.leaf[1].topOfRack.eth[5].mac.queue packetPopped:vector(packetBytes) ETV
attr interpolationmode none
attr title "packet popped, vector(packetBytes)"
vector 278 XHost_SpineLeaf_Network.leaf[1].topOfRack.eth[5].mac.queue queueingTime:vector ETV
attr interpolationmode none
attr source queueingTime(packetPopped)
attr title "queueing times, vector"
attr unit s
vector 279 XHost_SpineLeaf_Network.leaf[1].topOfRack.eth[6].mac packetReceivedFromUpper:vector(packetBytes) ETV
attr interpolationmode none
attr source packetReceivedFromUpper
attr title "packet bytes from higher layer, vector(packetBytes)"
vector 280 XHost_SpineLeaf_Network.leaf[1].topOfRack.eth[6].mac.queue packetPushed:vector(packetBytes) ETV
attr interpolationmode none
attr title "packet pushed, vector(packetBytes)"
vector 281 XHost_SpineLeaf_Network.leaf[1].topOfRack.eth[6].mac.queue queueLength:vector ETV
attr interpolationmode sample-hold
attr source "count(packetPushed) - count(packetPopped) - count(packetRemoved) - count(packetDropped)"
attr title "queue length, vector"
vector 282 XHost_SpineLeaf_Network.leaf[1].topOfRack.eth[6].mac.queue packetPopped:vector(packetBytes) ETV
attr interpolationmode none
attr title "packet popped, vector(packetBytes)"
vector 283 XHost_SpineLeaf_Network.leaf[1].topOfRack.eth[6].mac.queue queueingTime:vector ETV
attr interpolationmode none
attr source queueingTime(packetPopped)
attr title "queueing times, vector"
attr unit s
vector 284 XHost_SpineLeaf_Network.leaf[2].topOfRack.eth[5].mac packetReceivedFromUpper:vector(packetBytes) ETV
attr interpolationmode none
attr source packetReceivedFromUpper
attr title "packet bytes from higher layer, vector(packetBytes)"
vector 285 XHost_SpineLeaf_Network.leaf[2].topOfRack.eth[5].mac.queue packetPushed:vector(packetBytes) ETV
attr interpolationmode none
attr title "packet pushed, vector(packetBytes)"
vector 286 XHost_SpineLeaf_Network.leaf[2].topOfRack.eth[5].mac.queue queueLength:vector ETV
attr interpolationmode sample-hold
attr source "count(packetPushed) - count(packetPopped) - count(packetRemoved) - count(packetDropped)"
attr title "queue length, vector"
vector 287 XHost_SpineLeaf_Network.leaf[2].topOfRack.eth[5].mac.queue packetPopped:vector(packetBytes) ETV
attr interpolationmode none
attr title "packet popped, vector(packetBytes)"
vector 288 XHost_SpineLeaf_Network.leaf[2].topOfRack.eth[5].mac.queue queueingTime:vector ETV
attr interpolationmode none
attr source queueingTime(packetPopped)
attr title "queueing times, vector"
attr unit s
vector 289 XHost_SpineLeaf_Network.leaf[2].topOfRack.eth[6].mac packetReceivedFromUpper:vector(packetBytes) ETV
attr interpolationmode none
attr source packetReceivedFromUpper
attr title "packet bytes from higher layer, vector(packetBytes)"
vector 290 XHost_SpineLeaf_Network.leaf[2].topOfRack.eth[6].mac.queue packetPushed:vector(packetBytes) ETV
attr interpolationmode none
attr title "packet pushed, vector(packetBytes)"
vector 291 XHost_SpineLeaf_Network.leaf[2].topOfRack.eth[6].mac.queue queueLength:vector ETV
attr interpolationmode sample-hold
attr source "count(packetPushed) - count(packetPopped) - count(packetRemoved) - count(packetDropped)"
attr title "queue length, vector"
vector 292 XHost_SpineLeaf_Network.leaf[2].topOfRack.eth[6].mac.queue packetPopped:vector(packetBytes) ETV
attr interpolationmode none
attr title "packet popped, vector(packetBytes)"
vector 293 XHost_SpineLeaf_Network.leaf[2].topOfRack.eth[6].mac.queue queueingTime:vector ETV
attr interpolationmode none
attr source queueingTime(packetPopped)
attr title "queueing times, vector"
attr unit s
vector 294 XHost_SpineLeaf_Network.leaf[3].topOfRack.eth[5].mac packetReceivedFromUpper:vector(packetBytes) ETV
attr interpolationmode none
attr source packetReceivedFromUpper
attr title "packet bytes from higher layer, vector(packetBytes)"
vector 295 XHost_SpineLeaf_Network.leaf[3].topOfRack.eth[5].mac.queue packetPushed:vector(packetBytes) ETV
attr interpolationmode none
attr title "packet pushed, vector(packetBytes)"
vector 296 XHost_SpineLeaf_Network.leaf[3].topOfRack.eth[5].mac.queue queueLength:vector ETV
attr interpolationmode sample-hold
attr source "count(packetPushed) - count(packetPopped) - count(packetRemoved) - count(packetDropped)"
attr title "queue length, vector"
vector 297 XHost_SpineLeaf_Network.leaf[3].topOfRack.eth[5].mac.queue packetPopped:vector(packetBytes) ETV
attr interpolationmode none
attr title "packet popped, vector(packetBytes)"
vector 298 XHost_SpineLeaf_Network.leaf[3].topOfRack.eth[5].mac.queue queueingTime:vector ETV
attr interpolationmode none
attr source queueingTime(packetPopped)
attr title "queueing times, vector"
attr unit s
vector 299 XHost_SpineLeaf_Network.leaf[3].topOfRack.eth[6].mac packetReceivedFromUpper:vector(packetBytes) ETV
attr interpolationmode none
attr source packetReceivedFromUpper
attr title "packet bytes from higher layer, vector(packetBytes)"
vector 300 XHost_SpineLeaf_Network.leaf[3].topOfRack.eth[6].mac.queue packetPushed:vector(packetBytes) ETV
attr interpolationmode none
attr title "packet pushed, vector(packetBytes)"
vector 301 XHost_SpineLeaf_Network.leaf[3].topOfRack.eth[6].mac.queue queueLength:vector ETV
attr interpolationmode sample-hold
attr source "count(packetPushed) - count(packetPopped) - count(packetRemoved) - count(packetDropped)"
attr title "queue length, vector"
vector 302 XHost_SpineLeaf_Network.leaf[3].topOfRack.eth[6].mac.queue packetPopped:vector(packetBytes) ETV
attr interpolationmode none
attr title "packet popped, vector(packetBytes)"
vector 303 XHost_SpineLeaf_Network.leaf[3].topOfRack.eth[6].mac.queue queueingTime:vector ETV
attr interpolationmode none
attr source queueingTime(packetPopped)
attr title "queueing times, vector"
attr unit s
vector 304 XHost_SpineLeaf_Network.leaf[4].topOfRack.eth[5].mac packetReceivedFromUpper:vector(packetBytes) ETV
attr interpolationmode none
attr source packetReceivedFromUpper
attr title "packet bytes from higher layer, vector(packetBytes)"
vector 305 XHost_SpineLeaf_Network.leaf[4].topOfRack.eth[5].mac.queue packetPushed:vector(packetBytes) ETV
attr interpolationmode none
attr title "packet pushed, vector(packetBytes)"
vector 306 XHost_SpineLeaf_Network.leaf[4].topOfRack.eth[5].mac.queue queueLength:vector ETV
attr interpolationmode sample-hold
attr source "count(packetPushed) - count(packetPopped) - count(packetRemoved) - count(packetDropped)"
attr title "queue length, vector"
vector 307 XHost_SpineLeaf_Network.leaf[4].topOfRack.eth[5].mac.queue packetPopped:vector(packetBytes) ETV
attr interpolationmode none
attr title "packet popped, vector(packetBytes)"
vector 308 XHost_SpineLeaf_Network.leaf[4].topOfRack.eth[5].mac.queue queueingTime:vector ETV
attr interpolationmode none
attr source queueingTime(packetPopped)
attr title "queueing times, vector"
attr unit s
vector 309 XHost_SpineLeaf_Network.leaf[4].topOfRack.eth[6].mac packetReceivedFromUpper:vector(packetBytes) ETV
attr interpolationmode none
attr source packetReceivedFromUpper
attr title "packet bytes from higher layer, vector(packetBytes)"
vector 310 XHost_SpineLeaf_Network.leaf[4].topOfRack.eth[6].mac.queue packetPushed:vector(packetBytes) ETV
attr interpolationmode none
attr title "packet pushed, vector(packetBytes)"
vector 311 XHost_SpineLeaf_Network.leaf[4].topOfRack.eth[6].mac.queue queueLength:vector ETV
attr interpolationmode sample-hold
attr source "count(packetPushed) - count(packetPopped) - count(packetRemoved) - count(packetDropped)"
attr title "queue length, vector"
vector 312 XHost_SpineLeaf_Network.leaf[4].topOfRack.eth[6].mac.queue packetPopped:vector(packetBytes) ETV
attr interpolationmode none
attr title "packet popped, vector(packetBytes)"
vector 313 XHost_SpineLeaf_Network.leaf[4].topOfRack.eth[6].mac.queue queueingTime:vector ETV
attr interpolationmode none
attr source queueingTime(packetPopped)
attr title "queueing times, vector"
attr unit s
vector 314 XHost_SpineLeaf_Network.leaf[5].topOfRack.eth[5].mac packetReceivedFromUpper:vector(packetBytes) ETV
attr interpolationmode none
attr source packetReceivedFromUpper
attr title "packet bytes from higher layer, vector(packetBytes)"
vector 315 XHost_SpineLeaf_Network.leaf[5].topOfRack.eth[5].mac.queue packetPushed:vector(packetBytes) ETV
attr interpolationmode none
attr title "packet pushed, vector(packetBytes)"
vector 316 XHost_SpineLeaf_Network.leaf[5].topOfRack.eth[5].mac.queue queueLength:vector ETV
attr interpolationmode sample-hold
attr source "count(packetPushed) - count(packetPopped) - count(packetRemoved) - count(packetDropped)"
attr title "queue length, vector"
vector 317 XHost_SpineLeaf_Network.leaf[5].topOfRack.eth[5].mac.queue packetPopped:vector(packetBytes) ETV
attr interpolationmode none
attr title "packet popped, vector(packetBytes)"
vector 318 XHost_SpineLeaf_Network.leaf[5].topOfRack.eth[5].mac.queue queueingTime:vector ETV
attr interpolationmode none
attr source queueingTime(packetPopped)
attr title "queueing times, vector"
attr unit s
vector 319 XHost_SpineLeaf_Network.leaf[5].topOfRack.eth[6].mac packetReceivedFromUpper:vector(packetBytes) ETV
attr interpolationmode none
attr source packetReceivedFromUpper
attr title "packet bytes from higher layer, vector(packetBytes)"
vector 320 XHost_SpineLeaf_Network.leaf[5].topOfRack.eth[6].mac.queue packetPushed:vector(packetBytes) ETV
attr interpolationmode none
attr title "packet pushed, vector(packetBytes)"
vector 321 XHost_SpineLeaf_Network.leaf[5].topOfRack.eth[6].mac.queue queueLength:vector ETV
attr interpolationmode sample-hold
attr source "count(packetPushed) - count(packetPopped) - count(packetRemoved) - count(packetDropped)"
attr title "queue length, vector"
vector 322 XHost_SpineLeaf_Network.leaf[5].topOfRack.eth[6].mac.queue packetPopped:vector(packetBytes) ETV
attr interpolationmode none
attr title "packet popped, vector(packetBytes)"
vector 323 XHost_SpineLeaf_Network.leaf[5].topOfRack.eth[6].mac.queue queueingTime:vector ETV
attr interpolationmode none
attr source queueingTime(packetPopped)
attr title "queueing times, vector"
attr unit s
vector 324 XHost_SpineLeaf_Network.leaf[6].topOfRack.eth[5].mac packetReceivedFromUpper:vector(packetBytes) ETV
attr interpolationmode none
attr source packetReceivedFromUpper
attr title "packet bytes from higher layer, vector(packetBytes)"
vector 325 XHost_SpineLeaf_Network.leaf[6].topOfRack.eth[5].mac.queue packetPushed:vector(packetBytes) ETV
attr interpolationmode none
attr title "packet pushed, vector(packetBytes)"
vector 326 XHost_SpineLeaf_Network.leaf[6].topOfRack.eth[5].mac.queue queueLength:vector ETV
attr interpolationmode sample-hold
attr source "count(packetPushed) - count(packetPopped) - count(packetRemoved) - count(packetDropped)"
attr title "queue length, vector"
vector 327 XHost_SpineLeaf_Network.leaf[6].topOfRack.eth[5].mac.queue packetPopped:vector(packetBytes) ETV
attr interpolationmode none
attr title "packet popped, vector(packetBytes)"
vector 328 XHost_SpineLeaf_Network.leaf[6].topOfRack.eth[5].mac.queue queueingTime:vector ETV
attr interpolationmode none
attr source queueingTime(packetPopped)
attr title "queueing times, vector"
attr unit s
vector 329 XHost_SpineLeaf_Network.leaf[6].topOfRack.eth[6].mac packetReceivedFromUpper:vector(packetBytes) ETV
attr interpolationmode none
attr source packetReceivedFromUpper
attr title "packet bytes from higher layer, vector(packetBytes)"
vector 330 XHost_SpineLeaf_Network.leaf[6].topOfRack.eth[6].mac.queue packetPushed:vector(packetBytes) ETV
attr interpolationmode none
attr title "packet pushed, vector(packetBytes)"
vector 331 XHost_SpineLeaf_Network.leaf[6].topOfRack.eth[6].mac.queue queueLength:vector ETV
attr interpolationmode sample-hold
attr source "count(packetPushed) - count(packetPopped) - count(packetRemoved) - count(packetDropped)"
attr title "queue length, vector"
vector 332 XHost_SpineLeaf_Network.leaf[6].topOfRack.eth[6].mac.queue packetPopped:vector(packetBytes) ETV
attr interpolationmode none
attr title "packet popped, vector(packetBytes)"
vector 333 XHost_SpineLeaf_Network.leaf[6].topOfRack.eth[6].mac.queue queueingTime:vector ETV
attr interpolationmode none
attr source queueingTime(packetPopped)
attr title "queueing times, vector"
attr unit s
vector 334 XHost_SpineLeaf_Network.leaf[7].topOfRack.eth[5].mac packetReceivedFromUpper:vector(packetBytes) ETV
attr interpolationmode none
attr source packetReceivedFromUpper
attr title "packet bytes from higher layer, vector(packetBytes)"
vector 335 XHost_SpineLeaf_Network.leaf[7].topOfRack.eth[5].mac.queue packetPushed:vector(packetBytes) ETV
attr interpolationmode none
attr title "packet pushed, vector(packetBytes)"
vector 336 XHost_SpineLeaf_Network.leaf[7].topOfRack.eth[5].mac.queue queueLength:vector ETV
attr interpolationmode sample-hold
attr source "count(packetPushed) - count(packetPopped) - count(packetRemoved) - count(packetDropped)"
attr title "queue length, vector"
vector 337 XHost_SpineLeaf_Network.leaf[7].topOfRack.eth[5].mac.queue packetPopped:vector(packetBytes) ETV
attr interpolationmode none
attr title "packet popped, vector(packetBytes)"
vector 338 XHost_SpineLeaf_Network.leaf[7].topOfRack.eth[5].mac.queue queueingTime:vector ETV
attr interpolationmode none
attr source queueingTime(packetPopped)
attr title "queueing times, vector"
attr unit s
vector 339 XHost_SpineLeaf_Network.leaf[7].topOfRack.eth[6].mac packetReceivedFromUpper:vector(packetBytes) ETV
attr interpolationmode none
attr source packetReceivedFromUpper
attr title "packet bytes from higher layer, vector(packetBytes)"
vector 340 XHost_SpineLeaf_Network.leaf[7].topOfRack.eth[6].mac.queue packetPushed:vector(packetBytes) ETV
attr interpolationmode none
attr title "packet pushed, vector(packetBytes)"
vector 341 XHost_SpineLeaf_Network.leaf[7].topOfRack.eth[6].mac.queue queueLength:vector ETV
attr interpolationmode sample-hold
attr source "count(packetPushed) - count(packetPopped) - count(packetRemoved) - count(packetDropped)"
attr title "queue length, vector"
vector 342 XHost_SpineLeaf_Network.leaf[7].topOfRack.eth[6].mac.queue packetPopped:vector(packetBytes) ETV
attr interpolationmode none
attr title "packet popped, vector(packetBytes)"
vector 343 XHost_SpineLeaf_Network.leaf[7].topOfRack.eth[6].mac.queue queueingTime:vector ETV
attr interpolationmode none
attr source queueingTime(packetPopped)
attr title "queueing times, vector"
attr unit s
vector 344 XHost_SpineLeaf_Network.leaf[0].topOfRack.eth[5].mac txPk:vector(packetBytes) ETV
attr interpolationmode none
attr source packetSentToLower
attr title "packets transmitted, vector(packetBytes)"
vector 345 XHost_SpineLeaf_Network.leaf[0].topOfRack.eth[6].mac txPk:vector(packetBytes) ETV
attr interpolationmode none
attr source packetSentToLower
attr title "packets transmitted, vector(packetBytes)"
vector 346 XHost_SpineLeaf_Network.leaf[1].topOfRack.eth[5].mac txPk:vector(packetBytes) ETV
attr interpolationmode none
attr source packetSentToLower
attr title "packets transmitted, vector(packetBytes)"
vector 347 XHost_SpineLeaf_Network.leaf[1].topOfRack.eth[6].mac txPk:vector(packetBytes) ETV
attr interpolationmode none
attr source packetSentToLower
attr title "packets transmitted, vector(packetBytes)"
vector 348 XHost_SpineLeaf_Network.leaf[2].topOfRack.eth[5].mac txPk:vector(packetBytes) ETV
attr interpolationmode none
attr source packetSentToLower
attr title "packets transmitted, vector(packetBytes)"
vector 349 XHost_SpineLeaf_Network.leaf[2].topOfRack.eth[6].mac txPk:vector(packetBytes) ETV
attr interpolationmode none
attr source packetSentToLower
attr title "packets transmitted, vector(packetBytes)"
vector 350 XHost_SpineLeaf_Network.leaf[3].topOfRack.eth[5].mac txPk:vector(packetBytes) ETV
attr interpolationmode none
attr source packetSentToLower
attr title "packets transmitted, vector(packetBytes)"
vector 351 XHost_SpineLeaf_Network.leaf[3].topOfRack.eth[6].mac txPk:vector(packetBytes) ETV
attr interpolationmode none
attr source packetSentToLower
attr title "packets transmitted, vector(packetBytes)"
vector 352 XHost_SpineLeaf_Network.leaf[4].topOfRack.eth[5].mac txPk:vector(packetBytes) ETV
attr interpolationmode none
attr source packetSentToLower
attr title "packets transmitted, vector(packetBytes)"
vector 353 XHost_SpineLeaf_Network.leaf[4].topOfRack.eth[6].mac txPk:vector(packetBytes) ETV
attr interpolationmode none
attr source packetSentToLower
attr title "packets transmitted, vector(packetBytes)"
vector 354 XHost_SpineLeaf_Network.leaf[5].topOfRack.eth[5].mac txPk:vector(packetBytes) ETV
attr interpolationmode none
attr source packetSentToLower
attr title "packets transmitted, vector(packetBytes)"
vector 355 XHost_SpineLeaf_Network.leaf[5].topOfRack.eth[6].mac txPk:vector(packetBytes) ETV
attr interpolationmode none
attr source packetSentToLower
attr title "packets transmitted, vector(packetBytes)"
vector 356 XHost_SpineLeaf_Network.leaf[6].topOfRack.eth[5].mac txPk:vector(packetBytes) ETV
attr interpolationmode none
attr source packetSentToLower
attr title "packets transmitted, vector(packetBytes)"
vector 357 XHost_SpineLeaf_Network.leaf[6].topOfRack.eth[6].mac txPk:vector(packetBytes) ETV
attr interpolationmode none
attr source packetSentToLower
attr title "packets transmitted, vector(packetBytes)"
vector 358 XHost_SpineLeaf_Network.leaf[7].topOfRack.eth[5].mac txPk:vector(packetBytes) ETV
attr interpolationmode none
attr source packetSentToLower
attr title "packets transmitted, vector(packetBytes)"
vector 359 XHost_SpineLeaf_Network.leaf[7].topOfRack.eth[6].mac txPk:vector(packetBytes) ETV
attr interpolationmode none
attr source packetSentToLower
attr title "packets transmitted, vector(packetBytes)"
vector 360 XHost_SpineLeaf_Network.leaf[0].H[0].eth[0].mac rxPkOk:vector(packetBytes) ETV
attr interpolationmode none
attr source rxPkOk
attr title "packets received OK, vector(packetBytes)"
vector 361 XHost_SpineLeaf_Network.leaf[0].H[0].eth[0].mac passedUpPk:vector(packetBytes) ETV
attr interpolationmode none
attr source packetSentToUpper
attr title "packets passed to higher layer, vector(packetBytes)"
vector 362 XHost_SpineLeaf_Network.leaf[0].H[1].eth[0].mac rxPkOk:vector(packetBytes) ETV
attr interpolationmode none
attr source rxPkOk
attr title "packets received OK, vector(packetBytes)"
vector 363 XHost_SpineLeaf_Network.leaf[0].H[1].eth[0].mac passedUpPk:vector(packetBytes) ETV
attr interpolationmode none
attr source packetSentToUpper
attr title "packets passed to higher layer, vector(packetBytes)"
vector 364 XHost_SpineLeaf_Network.leaf[1].H[0].eth[0].mac rxPkOk:vector(packetBytes) ETV
attr interpolationmode none
attr source rxPkOk
attr title "packets received OK, vector(packetBytes)"
vector 365 XHost_SpineLeaf_Network.leaf[1].H[0].eth[0].mac passedUpPk:vector(packetBytes) ETV
attr interpolationmode none
attr source packetSentToUpper
attr title "packets passed to higher layer, vector(packetBytes)"
vector 366 XHost_SpineLeaf_Network.leaf[1].H[1].eth[0].mac rxPkOk:vector(packetBytes) ETV
attr interpolationmode none
attr source rxPkOk
attr title "packets received OK, vector(packetBytes)"
vector 367 XHost_SpineLeaf_Network.leaf[1].H[1].eth[0].mac passedUpPk:vector(packetBytes) ETV
attr interpolationmode none
attr source packetSentToUpper
attr title "packets passed to higher layer, vector(packetBytes)"
vector 368 XHost_SpineLeaf_Network.leaf[2].H[0].eth[0].mac rxPkOk:vector(packetBytes) ETV
attr interpolationmode none
attr source rxPkOk
attr title "packets received OK, vector(packetBytes)"
vector 369 XHost_SpineLeaf_Network.leaf[2].H[0].eth[0].mac passedUpPk:vector(packetBytes) ETV
attr interpolationmode none
attr source packetSentToUpper
attr title "packets passed to higher layer, vector(packetBytes)"
vector 370 XHost_SpineLeaf_Network.leaf[2].H[1].eth[0].mac rxPkOk:vector(packetBytes) ETV
attr interpolationmode none
attr source rxPkOk
attr title "packets received OK, vector(packetBytes)"
vector 371 XHost_SpineLeaf_Network.leaf[2].H[1].eth[0].mac passedUpPk:vector(packetBytes) ETV
attr interpolationmode none
attr source packetSentToUpper
attr title "packets passed to higher layer, vector(packetBytes)"
vector 372 XHost_SpineLeaf_Network.leaf[3].H[0].eth[0].mac rxPkOk:vector(packetBytes) ETV
attr interpolationmode none
attr source rxPkOk
attr title "packets received OK, vector(packetBytes)"
vector 373 XHost_SpineLeaf_Network.leaf[3].H[0].eth[0].mac passedUpPk:vector(packetBytes) ETV
attr interpolationmode none
attr source packetSentToUpper
attr title "packets passed to higher layer, vector(packetBytes)"
vector 374 XHost_SpineLeaf_Network.leaf[3].H[1].eth[0].mac rxPkOk:vector(packetBytes) ETV
attr interpolationmode none
attr source rxPkOk
attr title "packets received OK, vector(packetBytes)"
vector 375 XHost_SpineLeaf_Network.leaf[3].H[1].eth[0].mac passedUpPk:vector(packetBytes) ETV
attr interpolationmode none
attr source packetSentToUpper
attr title "packets passed to higher layer, vector(packetBytes)"
vector 376 XHost_SpineLeaf_Network.leaf[4].H[0].eth[0].mac rxPkOk:vector(packetBytes) ETV
attr interpolationmode none
attr source rxPkOk
attr title "packets received OK, vector(packetBytes)"
vector 377 XHost_SpineLeaf_Network.leaf[4].H[0].eth[0].mac passedUpPk:vector(packetBytes) ETV
attr interpolationmode none
attr source packetSentToUpper
attr title "packets passed to higher layer, vector(packetBytes)"
vector 378 XHost_SpineLeaf_Network.leaf[4].H[1].eth[0].mac rxPkOk:vector(packetBytes) ETV
attr interpolationmode none
attr source rxPkOk
attr title "packets received OK, vector(packetBytes)"
vector 379 XHost_SpineLeaf_Network.leaf[4].H[1].eth[0].mac passedUpPk:vector(packetBytes) ETV
attr interpolationmode none
attr source packetSentToUpper
attr title "packets passed to higher layer, vector(packetBytes)"
vector 380 XHost_SpineLeaf_Network.leaf[5].H[0].eth[0].mac rxPkOk:vector(packetBytes) ETV
attr interpolationmode none
attr source rxPkOk
attr title "packets received OK, vector(packetBytes)"
vector 381 XHost_SpineLeaf_Network.leaf[5].H[0].eth[0].mac passedUpPk:vector(packetBytes) ETV
attr interpolationmode none
attr source packetSentToUpper
attr title "packets passed to higher layer, vector(packetBytes)"
vector 382 XHost_SpineLeaf_Network.leaf[5].H[1].eth[0].mac rxPkOk:vector(packetBytes) ETV
attr interpolationmode none
attr source rxPkOk
attr title "packets received OK, vector(packetBytes)"
vector 383 XHost_SpineLeaf_Network.leaf[5].H[1].eth[0].mac passedUpPk:vector(packetBytes) ETV
attr interpolationmode none
attr source packetSentToUpper
attr title "packets passed to higher layer, vector(packetBytes)"
vector 384 XHost_SpineLeaf_Network.leaf[6].H[0].eth[0].mac rxPkOk:vector(packetBytes) ETV
attr interpolationmode none
attr source rxPkOk
attr title "packets received OK, vector(packetBytes)"
vector 385 XHost_SpineLeaf_Network.leaf[6].H[0].eth[0].mac passedUpPk:vector(packetBytes) ETV
attr interpolationmode none
attr source packetSentToUpper
attr title "packets passed to higher layer, vector(packetBytes)"
vector 386 XHost_SpineLeaf_Network.leaf[6].H[1].eth[0].mac rxPkOk:vector(packetBytes) ETV
attr interpolationmode none
attr source rxPkOk
attr title "packets received OK, vector(packetBytes)"
vector 387 XHost_SpineLeaf_Network.leaf[6].H[1].eth[0].mac passedUpPk:vector(packetBytes) ETV
attr interpolationmode none
attr source packetSentToUpper
attr title "packets passed to higher layer, vector(packetBytes)"
vector 388 XHost_SpineLeaf_Network.leaf[7].H[0].eth[0].mac rxPkOk:vector(packetBytes) ETV
attr interpolationmode none
attr source rxPkOk
attr title "packets received OK, vector(packetBytes)"
vector 389 XHost_SpineLeaf_Network.leaf[7].H[0].eth[0].mac passedUpPk:vector(packetBytes) ETV
attr interpolationmode none
attr source packetSentToUpper
attr title "packets passed to higher layer, vector(packetBytes)"
vector 390 XHost_SpineLeaf_Network.leaf[7].H[1].eth[0].mac rxPkOk:vector(packetBytes) ETV
attr interpolationmode none
attr source rxPkOk
attr title "packets received OK, vector(packetBytes)"
vector 391 XHost_SpineLeaf_Network.leaf[7].H[1].eth[0].mac passedUpPk:vector(packetBytes) ETV
attr interpolationmode none
attr source packetSentToUpper
attr title "packets passed to higher layer, vector(packetBytes)"
vector 392 XHost_SpineLeaf_Network.leaf[0].H[0].eth[0].encap decapPk:vector(packetBytes) ETV
attr interpolationmode none
attr source decapPk
attr title "packets decapsulated, vector(packetBytes)"
vector 393 XHost_SpineLeaf_Network.leaf[0].H[1].eth[0].encap decapPk:vector(packetBytes) ETV
attr interpolationmode none
attr source decapPk
attr title "packets decapsulated, vector(packetBytes)"
vector 394 XHost_SpineLeaf_Network.leaf[1].H[0].eth[0].encap decapPk:vector(packetBytes) ETV
attr interpolationmode none
attr source decapPk
attr title "packets decapsulated, vector(packetBytes)"
vector 395 XHost_SpineLeaf_Network.leaf[1].H[1].eth[0].encap decapPk:vector(packetBytes) ETV
attr interpolationmode none
attr source decapPk
attr title "packets decapsulated, vector(packetBytes)"
vector 396 XHost_SpineLeaf_Network.leaf[2].H[0].eth[0].encap decapPk:vector(packetBytes) ETV
attr interpolationmode none
attr source decapPk
attr title "packets decapsulated, vector(packetBytes)"
vector 397 XHost_SpineLeaf_Network.leaf[2].H[1].eth[0].encap decapPk:vector(packetBytes) ETV
attr interpolationmode none
attr source decapPk
attr title "packets decapsulated, vector(packetBytes)"
vector 398 XHost_SpineLeaf_Network.leaf[3].H[0].eth[0].encap decapPk:vector(packetBytes) ETV
attr interpolationmode none
attr source decapPk
attr title "packets decapsulated, vector(packetBytes)"
vector 399 XHost_SpineLeaf_Network.leaf[3].H[1].eth[0].encap decapPk:vector(packetBytes) ETV
attr interpolationmode none
attr source decapPk
attr title "packets decapsulated, vector(packetBytes)"
vector 400 XHost_SpineLeaf_Network.leaf[4].H[0].eth[0].encap decapPk:vector(packetBytes) ETV
attr interpolationmode none
attr source decapPk
attr title "packets decapsulated, vector(packetBytes)"
vector 401 XHost_SpineLeaf_Network.leaf[4].H[1].eth[0].encap decapPk:vector(packetBytes) ETV
attr interpolationmode none
attr source decapPk
attr title "packets decapsulated, vector(packetBytes)"
vector 402 XHost_SpineLeaf_Network.leaf[5].H[0].eth[0].encap decapPk:vector(packetBytes) ETV
attr interpolationmode none
attr source decapPk
attr title "packets decapsulated, vector(packetBytes)"
vector 403 XHost_SpineLeaf_Network.leaf[5].H[1].eth[0].encap decapPk:vector(packetBytes) ETV
attr interpolationmode none
attr source decapPk
attr title "packets decapsulated, vector(packetBytes)"
vector 404 XHost_SpineLeaf_Network.leaf[6].H[0].eth[0].encap decapPk:vector(packetBytes) ETV
attr interpolationmode none
attr source decapPk
attr title "packets decapsulated, vector(packetBytes)"
vector 405 XHost_SpineLeaf_Network.leaf[6].H[1].eth[0].encap decapPk:vector(packetBytes) ETV
attr interpolationmode none
attr source decapPk
attr title "packets decapsulated, vector(packetBytes)"
vector 406 XHost_SpineLeaf_Network.leaf[7].H[0].eth[0].encap decapPk:vector(packetBytes) ETV
attr interpolationmode none
attr source decapPk
attr title "packets decapsulated, vector(packetBytes)"
vector 407 XHost_SpineLeaf_Network.leaf[7].H[1].eth[0].encap decapPk:vector(packetBytes) ETV
attr interpolationmode none
attr source decapPk
attr title "packets decapsulated, vector(packetBytes)"
[...]
865	21219162 22251 310955 372637 29.582019641937 45.649108375816 508 7.589553339865 23.649036835816 7304.7680685445 114366.36405592
866	21241413 12246 310955 372637 29.582019641937 45.649108375816 381 300 2680 270578 270083028
1028	21253659 162 311077 315481 29.582091091937 30.582795171937 5 40 576 1296 670848
1029	21253821 3743 311599 372773 29.589732009865 45.649263825816 115 40 576 38132 20768912
1030	21257564 3120 312643 366862 29.633749505816 42.198567114906 96 40 576 29568 16002048
1031	21260684 3287 312757 368442 29.633798625816 43.198517994906 101 40 576 33288 18107840
1035	21263971 162 311078 315482 29.582091091937 30.582795171937 5 58 594 1386 719124
1036	21264133 162 311078 315482 29.582091091937 30.582795171937 5 64 594 1398 720588
1037	21264295 310 311078 315482 29.582091091937 30.582795171937 10 0 1 5 5
1038	21264605 162 311078 315482 29.582091091937 30.582795171937 5 64 594 1398 720588
1039	21264767 164 311078 315482 29.582091091937 30.582795171937 5 0 4.096e-005 4.096e-005 1.6777216e-009
1040	21264931 3743 311600 372774 29.589732009865 45.649263825816 115 58 594 40202 22178924
1041	21268674 3743 311600 372774 29.589732009865 45.649263825816 115 64 594 40514 22216988
1042	21272417 7130 311600 372774 29.589732009865 45.649263825816 230 0 1 115 115
1043	21279547 3743 311600 372774 29.589732009865 45.649263825816 115 64 594 40514 22216988
1044	21283290 3623 311600 372774 29.589732009865 45.649263825816 115 0 4.24e-005 0.00025104 9.75168e-009
1045	21286913 3120 312644 366863 29.633749505816 42.198567114906 96 58 594 31296 17097600
1046	21290033 3120 312644 366863 29.633749505816 42.198567114906 96 64 594 31584 17132736
1047	21293153 5952 312644 366863 29.633749505816 42.198567114906 192 0 1 96 96
1048	21299105 3120 312644 366863 29.633749505816 42.198567114906 96 64 594 31584 17132736
1049	21302225 2993 312644 366863 29.633749505816 42.198567114906 96 0 4.24e-005 6.256e-005 2.2041856e-009
1050	21305218 3287 312758 368443 29.633798625816 43.198517994906 101 58 594 35106 19338932
1051	21308505 3287 312758 368443 29.633798625816 43.198517994906 101 64 594 35382 19372604
1052	21311792 6262 312758 368443 29.633798625816 43.198517994906 202 0 1 101 101
1053	21318054 3287 312758 368443 29.633798625816 43.198517994906 101 64 594 35382 19372604
1054	21321341 3157 312758 368443 29.633798625816 43.198517994906 101 0 4.24e-005 8.216e-005 2.671136e-009
1070	21324498 195 310894 315484 29.581923171937 30.582800931937 6 64 594 1992 1073424
1071	21324693 3743 311615 372776 29.589780169865 45.649269585816 115 64 594 40514 22216988
1072	21328436 3120 312655 366865 29.633755265816 42.198572874906 96 64 594 31584 17132736
1073	21331556 3287 312795 368459 29.633846785816 43.198566154906 101 64 594 35382 19372604
1077	21334843 195 310895 315485 29.581923221937 30.582800981937 6 64 594 1992 1073424
1078	21335038 195 310895 315485 29.581923221937 30.582800981937 6 64 594 1992 1073424
1079	21335233 3743 311616 372777 29.589780219865 45.649269635816 115 64 594 40514 22216988
1080	21338976 3743 311616 372777 29.589780219865 45.649269635816 115 64 594 40514 22216988
1081	21342719 3120 312656 366866 29.633755315816 42.198572924906 96 64 594 31584 17132736
1082	21345839 3120 312656 366866 29.633755315816 42.198572924906 96 64 594 31584 17132736
1083	21348959 3287 312796 368460 29.633846835816 43.198566204906 101 64 594 35382 19372604
1084	21352246 3287 312796 368460 29.633846835816 43.198566204906 101 64 594 35382 19372604
1091	21355533 195 310896 315486 29.581923221937 30.582800981937 6 46 576 1884 1003656
1092	21355728 3743 311618 372778 29.589780219865 45.649269635816 115 46 576 38444 20795744
1093	21359471 3120 312657 366867 29.633755315816 42.198572924906 96 46 576 29856 16026816
1094	21362591 3287 312797 368461 29.633846835816 43.198566204906 101 46 576 33564 18131576
1098	21365878 228 310986 315564 29.582037981937 30.582909021937 7 40 576 2424 1331904
1099	21366106 3448 311585 372419 29.589714579865 45.648788875816 106 40 576 34256 18659456
1100	21369554 3346 312734 368760 29.633782875816 43.199017844906 103 40 576 30688 16460160
1101	21372900 3383 312429 366585 29.633598155816 42.198326884906 104 40 576 33640 18326080
1105	21376283 228 310987 315565 29.582037981937 30.582909021937 7 58 594 2550 1421436
1106	21376511 228 310987 315565 29.582037981937 30.582909021937 7 64 594 2568 1423632
1107	21376739 434 310987 315565 29.582037981937 30.582909021937 14 0 1 7 7
1108	21377173 228 310987 315565 29.582037981937 30.582909021937 7 64 594 2568 1423632
1109	21377401 217 310987 315565 29.582037981937 30.582909021937 7 0 0 0 0
1110	21377618 3448 311586 372420 29.589714579865 45.648788875816 106 58 594 36164 19927016
1111	21381066 3448 311586 372420 29.589714579865 45.648788875816 106 64 594 36464 19963616
1112	21384514 6572 311586 372420 29.589714579865 45.648788875816 212 0 1 106 106
1113	21391086 3448 311586 372420 29.589714579865 45.648788875816 106 64 594 36464 19963616
1114	21394534 3326 311586 372420 29.589714579865 45.648788875816 106 0 4.24e-005 0.0001924 7.71088e-009
1115	21397860 3346 312735 368761 29.633782875816 43.199017844906 103 58 594 32542 17598300
1116	21401206 3346 312735 368761 29.633782875816 43.199017844906 103 64 594 32860 17637096
1117	21404552 6386 312735 368761 29.633782875816 43.199017844906 206 0 1 103 103
1118	21410938 3346 312735 368761 29.633782875816 43.199017844906 103 64 594 32860 17637096
1119	21414284 3251 312735 368761 29.633782875816 43.199017844906 103 0 4.24e-005 0.00019184 6.816896e-009
1120	21417535 3383 312430 366586 29.633598155816 42.198326884906 104 58 594 35512 19570816
1121	21420918 3383 312430 366586 29.633598155816 42.198326884906 104 64 594 35806 19606684
1122	21424301 6448 312430 366586 29.633598155816 42.198326884906 208 0 1 104 104
1123	21430749 3383 312430 366586 29.633598155816 42.198326884906 104 64 594 35806 19606684
1124	21434132 3263 312430 366586 29.633598155816 42.198326884906 104 0 4.24e-005 0.00011136 3.3575936e-009
1140	21437395 228 311051 315574 29.582086141937 30.582957181937 7 64 594 2568 1423632
1141	21437623 3448 311602 372446 29.589762739865 45.648837035816 106 64 594 36464 19963616
1142	21441071 3346 312737 368763 29.633788635816 43.199047444906 103 64 594 32860 17637096
1143	21444417 3383 312460 366639 29.633646315816 42.198375044906 104 64 594 35806 19606684
1147	21447800 228 311052 315575 29.582086191937 30.582957231937 7 64 594 2568 1423632
1148	21448028 228 311052 315575 29.582086191937 30.582957231937 7 64 594 2568 1423632
1149	21448256 3448 311603 372447 29.589762789865 45.648837085816 106 64 594 36464 19963616
1150	21451704 3448 311603 372447 29.589762789865 45.648837085816 106 64 594 36464 19963616
1151	21455152 3346 312738 368764 29.633788685816 43.199047494906 103 64 594 32860 17637096
1152	21458498 3346 312738 368764 29.633788685816 43.199047494906 103 64 594 32860 17637096
1153	21461844 3383 312461 366640 29.633646365816 42.198375094906 104 64 594 35806 19606684
1154	21465227 3383 312461 366640 29.633646365816 42.198375094906 104 64 594 35806 19606684
1161	21468610 228 311054 315576 29.582086191937 30.582957231937 7 46 576 2442 1333452
1162	21468838 3448 311604 372448 29.589762789865 45.648837085816 106 46 576 34556 18685256
1163	21472286 3346 312739 368765 29.633788685816 43.199047494906 103 46 576 31006 16487508
1164	21475632 3383 312462 366641 29.633646365816 42.198375094906 104 46 576 33934 18351364
1454	21479015 2992 313298 372124 29.634179265816 45.648534385816 92 40 576 29408 15995648
1455	21482007 3082 312422 368828 29.633566465816 43.199132074906 95 40 576 26080 13805952
1458	21485089 2992 313299 372125 29.634179265816 45.648534385816 92 58 594 31064 17084144
1459	21488081 2992 313299 372125 29.634179265816 45.648534385816 92 64 594 31328 17116352
1460	21491073 5704 313299 372125 29.634179265816 45.648534385816 184 0 1 92 92
1461	21496777 2992 313299 372125 29.634179265816 45.648534385816 92 64 594 31328 17116352
1462	21499769 2876 313299 372125 29.634179265816 45.648534385816 92 0 4.24e-005 0.0001272 5.39328e-009
1463	21502645 3082 312423 368829 29.633566465816 43.199132074906 95 58 594 27790 14775612
1464	21505727 3082 312423 368829 29.633566465816 43.199132074906 95 64 594 28108 14814408
1465	21508809 5890 312423 368829 29.633566465816 43.199132074906 190 0 1 95 95
1466	21514699 3082 312423 368829 29.633566465816 43.199132074906 95 64 594 28108 14814408
1467	21517781 2970 312423 368829 29.633566465816 43.199132074906 95 0 4.24e-005 0.00010496 4.0019456e-009
1478	21520751 2992 313313 372154 29.634185025816 45.648582545816 92 64 594 31328 17116352
1479	21523743 3082 312446 368831 29.633614625816 43.199137834906 95 64 594 28108 14814408
1482	21526825 2992 313314 372155 29.634185075816 45.648582595816 92 64 594 31328 17116352
1483	21529817 2992 313314 372155 29.634185075816 45.648582595816 92 64 594 31328 17116352
1484	21532809 3082 312447 368832 29.633614675816 43.199137884906 95 64 594 28108 14814408
1485	21535891 3082 312447 368832 29.633614675816 43.199137884906 95 64 594 28108 14814408
1490	21538973 2992 313315 372157 29.634185075816 45.648582595816 92 46 576 29672 16018352
1491	21541965 3082 312448 368833 29.633614675816 43.199137884906 95 46 576 26398 13833300
1494	21545047 3836 311545 372743 29.589623059865 45.649199355816 118 40 576 36646 19783348
1495	21548883 2929 314498 368753 30.185853124906 43.199005844906 90 40 576 29864 16322624
1498	21551812 3836 311546 372744 29.589623059865 45.649199355816 118 58 594 38770 21140836
1499	21555648 3836 311546 372744 29.589623059865 45.649199355816 118 64 594 39116 21183056
1500	21559484 7316 311546 372744 29.589623059865 45.649199355816 236 0 1 118 118
1501	21566800 3836 311546 372744 29.589623059865 45.649199355816 118 64 594 39116 21183056
1502	21570636 3750 311546 372744 29.589623059865 45.649199355816 118 0 4.24e-005 0.0003196 1.13666368e-008
1503	21574386 2929 314499 368754 30.185853124906 43.199005844906 90 58 594 31484 17426888
1504	21577315 2929 314499 368754 30.185853124906 43.199005844906 90 64 594 31730 17456900
1505	21580244 5580 314499 368754 30.185853124906 43.199005844906 180 0 1 90 90
1506	21585824 2929 314499 368754 30.185853124906 43.199005844906 90 64 594 31730 17456900
1507	21588753 2849 314499 368754 30.185853124906 43.199005844906 90 0 4.24e-005 0.00015728 4.516928e-009
1518	21591602 3836 311548 372746 29.589628819865 45.649228635816 118 64 594 39116 21183056
1519	21595438 2929 314515 368770 30.185901284906 43.199054004906 90 64 594 31730 17456900
1522	21598367 3836 311549 372747 29.589628869865 45.649228685816 118 64 594 39116 21183056
1523	21602203 3836 311549 372747 29.589628869865 45.649228685816 118 64 594 39116 21183056
1524	21606039 2929 314516 368771 30.185901334906 43.199054054906 90 64 594 31730 17456900
1525	21608968 2929 314516 368771 30.185901334906 43.199054054906 90 64 594 31730 17456900
1530	21611897 3836 311550 372748 29.589628869865 45.649228685816 118 46 576 36992 19813112
1531	21615733 2929 314517 368772 30.185901334906 43.199054054906 90 46 576 30110 16343780
1559	21618662 163 310940 315637 29.581988861937 30.583015421937 5 40 576 1832 1001024
1560	21618825 163 310941 315638 29.581988861937 30.583015421937 5 58 594 1922 1068596
1561	21618988 163 310941 315638 29.581988861937 30.583015421937 5 64 594 1928 1069328
1562	21619151 310 310941 315676 29.581988861937 30.583056381937 10 0 1 5 5
1563	21619461 163 310941 315676 29.581988861937 30.583056381937 5 64 594 1928 1069328
1564	21619624 164 310941 315676 29.581988861937 30.583056381937 5 0 4.096e-005 4.096e-005 1.6777216e-009
1571	21619788 163 310975 315684 29.582037021937 30.583063581937 5 64 594 1928 1069328
1572	21619951 163 310976 315685 29.582037071937 30.583063631937 5 64 594 1928 1069328
1573	21620114 163 310976 315685 29.582037071937 30.583063631937 5 64 594 1928 1069328
1574	21620277 163 310977 315686 29.582037071937 30.583063631937 5 46 576 1838 1001540
1575	21620440 128 311179 315681 29.582146931937 30.583060371937 4 40 40 160 6400
1576	21620568 128 311180 315682 29.582146931937 30.583060371937 4 58 58 232 13456
1577	21620696 128 311180 315682 29.582146931937 30.583060371937 4 64 64 256 16384
1578	21620824 248 311180 315682 29.582146931937 30.583060371937 8 0 1 4 4
1579	21621072 128 311180 315682 29.582146931937 30.583060371937 4 64 64 256 16384
1580	21621200 124 311180 315682 29.582146931937 30.583060371937 4 0 0 0 0
1581	21621324 128 311194 315691 29.582152691937 30.583066131937 4 64 64 256 16384
1582	21621452 128 311195 315692 29.582152741937 30.583066181937 4 64 64 256 16384
1583	21621580 128 311195 315692 29.582152741937 30.583066181937 4 64 64 256 16384
1584	21621708 128 311196 315693 29.582152741937 30.583066181937 4 46 46 184 8464
1600	21621836 96 315359 315630 30.582579091937 30.583011251937 3 40 40 120 4800
1601	21621932 96 315360 315631 30.582579091937 30.583011251937 3 58 58 174 10092
1602	21622028 96 315360 315631 30.582579091937 30.583011251937 3 64 64 192 12288
1603	21622124 186 315360 315631 30.582579091937 30.583011251937 6 0 1 3 3
1604	21622310 96 315360 315631 30.582579091937 30.583011251937 3 64 64 192 12288
1605	21622406 93 315360 315631 30.582579091937 30.583011251937 3 0 0 0 0
1618	21622499 96 315362 315640 30.582584851937 30.583017011937 3 64 64 192 12288
1619	21622595 96 315363 315641 30.582584901937 30.583017061937 3 64 64 192 12288
1620	21622691 96 315363 315641 30.582584901937 30.583017061937 3 64 64 192 12288
1621	21622787 96 315364 315642 30.582584901937 30.583017061937 3 46 46 138 6348
1622	21622883 130 311148 315457 29.582136221937 30.582742061937 4 40 576 1232 666752
1623	21623013 130 311149 315458 29.582136221937 30.582742061937 4 58 594 1304 712400
1624	21623143 130 311149 315458 29.582136221937 30.582742061937 4 64 594 1316 713864
1625	21623273 248 311149 315458 29.582136221937 30.582742061937 8 0 1 4 4
1626	21623521 130 311149 315458 29.582136221937 30.582742061937 4 64 594 1316 713864
1627	21623651 124 311149 315458 29.582136221937 30.582742061937 4 0 0 0 0
1628	21623775 162 310875 315469 29.581903101937 30.582790221937 5 64 594 1380 717960
1629	21623937 162 310876 315470 29.581903151937 30.582790271937 5 64 594 1380 717960
1630	21624099 162 310876 315470 29.581903151937 30.582790271937 5 64 594 1380 717960
1631	21624261 162 310877 315472 29.581903151937 30.582790271937 5 46 576 1290 669900
1641	21624423 162 310905 315750 29.581930851937 30.583117651937 5 40 576 1272 668352
1642	21624585 162 310906 315751 29.581930851937 30.583117651937 5 58 594 1362 715764
1643	21624747 162 310906 315751 29.581930851937 30.583117651937 5 64 594 1380 717960
1644	21624909 310 310906 315751 29.581930851937 30.583117651937 10 0 1 5 5
1645	21625219 162 310906 315751 29.581930851937 30.583117651937 5 64 594 1380 717960
1646	21625381 155 310906 315751 29.581930851937 30.583117651937 5 0 0 0 0
1647	21625536 162 310922 315760 29.581979011937 30.583123411937 5 64 594 1380 717960
1648	21625698 162 310923 315761 29.581979061937 30.583123461937 5 64 594 1380 717960
1649	21625860 162 310923 315761 29.581979061937 30.583123461937 5 64 594 1380 717960
1650	21626022 162 310924 315762 29.581979061937 30.583123461937 5 46 576 1290 669900
1651	21626184 65 315254 315585 30.582359021937 30.582958141937 2 40 576 616 333376
1652	21626249 65 315255 315586 30.582359021937 30.582958141937 2 58 594 652 356200
1653	21626314 65 315255 315586 30.582359021937 30.582958141937 2 64 594 658 356932
1654	21626379 124 315255 315586 30.582359021937 30.582958141937 4 0 1 2 2
1655	21626503 65 315255 315586 30.582359021937 30.582958141937 2 64 594 658 356932
1656	21626568 62 315255 315586 30.582359021937 30.582958141937 2 0 0 0 0
1657	21626630 65 315264 315611 30.582364781937 30.583006301937 2 64 594 658 356932
1658	21626695 65 315265 315612 30.582364831937 30.583006351937 2 64 594 658 356932
1659	21626760 65 315265 315612 30.582364831937 30.583006351937 2 64 594 658 356932
1660	21626825 65 315266 315614 30.582364831937 30.583006351937 2 46 576 622 333892
1690	21626890 363 311047 315733 29.582085281937 30.583111841937 11 24 1608 6456 5171904
1691	21627253 585 311047 315733 29.582085281937 30.583111841937 13 19.582005201937 20.583031761937 265.57335602518 5427.0180887008
1730	21627838 32 331248 331248 33.594015819865 33.594015819865 1 64 64 64 4096
1736	21627870 33 310892 310892 29.581908961937 29.581908961937 1 594 594 594 352836
1785	21627903 65 311142 311451 29.582135311937 29.582366271937 2 64 594 658 356932
1796	21627968 64 359488 361645 39.645041065816 40.644013865816 2 64 64 128 8192
1812	21628032 2920 311578 372811 29.589682889865 45.649312945816 90 40 576 24808 13137600
1813	21630952 2920 311579 372812 29.589682889865 45.649312945816 90 58 594 26428 14059848
1814	21633872 2920 311579 372812 29.589682889865 45.649312945816 90 64 594 26728 14096448
1815	21636792 5580 311579 372812 29.589682889865 45.649312945816 180 0 2 92 94
1816	21642372 2888 311579 372812 29.589682889865 45.649312945816 89 64 594 26664 14092352
1817	21645260 2775 311579 372812 29.589682889865 45.649312945816 89 0 4.24e-005 8.48e-005 3.59552e-009
1818	21648035 2888 311588 372814 29.589731049865 45.649318705816 89 64 594 26664 14092352
1819	21650923 2888 311589 372815 29.589731099865 45.649318755816 89 64 594 26664 14092352
1820	21653811 2888 311589 372815 29.589731099865 45.649318755816 89 64 594 26664 14092352
1821	21656699 2888 311590 372816 29.589731099865 45.649318755816 89 46 576 25062 13161284
1822	21659587 2999 313483 372518 29.634384635816 45.648922795816 92 40 576 33158 18304580
1823	21662586 2999 313484 372519 29.634384635816 45.648922795816 92 58 594 34814 19528076
1824	21665585 2999 313484 372519 29.634384635816 45.648922795816 92 64 594 35036 19555160
1825	21668584 5704 313484 372519 29.634384635816 45.648922795816 184 0 1 92 92
1826	21674288 2999 313484 372519 29.634384635816 45.648922795816 92 64 594 35036 19555160
1827	21677287 2893 313484 372519 29.634384635816 45.648922795816 92 0 4.24e-005 0.00011448 3.7713216e-009
1828	21680180 2999 313503 372521 29.634390395816 45.648928555816 92 64 594 35036 19555160
1829	21683179 2999 313505 372522 29.634390445816 45.648928605816 92 64 594 35036 19555160
1830	21686178 2999 313505 372522 29.634390445816 45.648928605816 92 64 594 35036 19555160
1831	21689177 2999 313508 372523 29.634390445816 45.648928605816 92 46 576 33380 18323672
1915	21692176 3368 311628 358247 29.589810999865 39.600691959865 102 304 2680 58728 42899520
1916	21695544 4923 311628 358247 29.589810999865 39.600691959865 110 7.589752899865 17.600633859865 1411.5015067451 19152.092631373
1917	21700467 3599 312540 365741 29.633694575816 41.646120815816 109 304 3216 62480 45485184
1918	21704066 5239 312540 365741 29.633694575816 41.646120815816 117 7.633629755816 19.646055995816 1577.9126259905 22734.719621432
1925	21709305 429 311706 353898 29.589850759865 38.599368439865 13 594 594 7722 4586868
1926	21709734 4619 312814 372801 29.633859135816 45.649307135816 140 2 2414 76682 45883708
1927	21714353 6715 312814 372801 29.633859135816 45.649307135816 150 7.633787595816 23.649235595816 2341.2569599324 40917.66151846
1929	21721068 462 313620 371359 29.634452095816 44.647932975816 14 594 594 8316 4939704
1941	21721530 258 311945 357794 29.590110149865 39.600273749865 8 64 594 1572 730248
1949	21721788 330 317677 362359 30.634779855816 40.645588895816 10 362 594 5708 3306568
1950	21722118 322 317333 362688 30.634486045816 40.645864365816 10 64 594 1700 738440
1957	21722440 3897 314541 368818 30.185949544906 43.199126264906 118 536 2680 69448 52418880
1958	21726337 5831 314541 368818 30.185949544906 43.199126264906 130 8.185871284906 21.199048004906 1895.0410720778 29548.941928825
1969	21732168 495 314619 366539 30.185989304906 42.198253704906 15 594 594 8910 5292540
1970	21732663 388 314858 363693 30.186248694906 41.196997334906 12 64 594 2888 1444112
1977	21733051 225 313282 372339 29.634158285816 45.648703165816 7 64 328 712 132160
1981	21733276 32 346293 346293 36.641390705816 36.641390705816 1 64 64 64 4096

