file 191841 1612537593                                          
version 2
run Traffic_1-0-20210203-12:39:00-14884
attr configname Traffic_1
attr datetime 20210203-12:39:00
attr experiment Traffic_1
attr inifile XHost_SpineLeaf.ini
attr iterationvars ""
attr iterationvarsf ""
attr measurement ""
attr network XHost_SpineLeaf_Network
attr processid 14884
attr repetition 0
attr replication #0
attr resultdir results
attr runnumber 0
attr seedset 0
param **.borderLeaf.**.packetCapacity 1
param **.leaf[*].**.packetCapacity 1
param **.spine[*].**.packetCapacity 1
param **.H[*].numApps 1
param **.border.numApps 1
param **.H[*].app[0].typename "\"TcpSessionApp\""
param **.H[*].app[0].connectAddress "\"border\""
param **.H[*].app[0].tOpen 1.0s
param **.H[*].app[0].tSend 1.1s
param **.H[*].app[0].sendBytes 100000B
param **.H[*].app[0].tClose 0s
param **.border.app[0].typename "\"TcpEchoApp\""
param **.LanVisualizer.interfaceTableVisualizer.displayInterfaceTables true
param **.LanVisualizer.interfaceTableVisualizer.displayWiredInterfacesAtConnections false
param **.LanVisualizer.interfaceTableVisualizer.nodeFilter "\"not (*topOfRack or *H*)\""
param **.LanVisualizer.interfaceTableVisualizer.placementPriority 2
param **.LanVisualizer.interfaceTableVisualizer.format "\"%N %\\\\%n/%l%\\\\%m\""
param **.LanVisualizer.packetDropVisualizer.displayPacketDrops true
param **.LanVisualizer.packetDropVisualizer.labelFormat "\"%n/reason: %r\""
param **.LanVisualizer.packetDropVisualizer.fadeOutTime 10s
param **.LeafVisualizer.interfaceTableVisualizer.displayInterfaceTables true
param **.LeafVisualizer.interfaceTableVisualizer.displayWiredInterfacesAtConnections false
param **.LeafVisualizer.interfaceTableVisualizer.placementPriority 2
param **.LeafVisualizer.interfaceTableVisualizer.format "\"%N %\\\\%n/%l%\\\\%m\""
param **.configurator.config "xmldoc(\"XHost_SpineLeaf_Routing.xml\")"

vector 0 XHost_SpineLeaf_Network.leaf[0].H[0].tcp.conn-17 tcpRcvQueueBytes:vector ETV
attr interpolationmode sample-hold
0	162742 9 18 18 1 1 1 0 0 0 0
vector 1 XHost_SpineLeaf_Network.leaf[0].H[0].tcp.conn-17 rcvAdv:vector ETV
attr interpolationmode sample-hold
1	162751 12 18 18 1 1 1 7504 7504 7504 56310016
vector 2 XHost_SpineLeaf_Network.leaf[0].H[0].tcp.conn-17 rcvWnd:vector ETV
attr interpolationmode sample-hold
2	162763 12 18 18 1 1 1 7504 7504 7504 56310016
vector 3 XHost_SpineLeaf_Network.leaf[0].H[0].tcp.conn-17 sndAck:vector ETV
attr interpolationmode sample-hold
3	162775 9 18 18 1 1 1 0 0 0 0
vector 4 XHost_SpineLeaf_Network.leaf[0].H[1].tcp.conn-18 tcpRcvQueueBytes:vector ETV
attr interpolationmode sample-hold
4	162784 9 19 19 1 1 1 0 0 0 0
vector 5 XHost_SpineLeaf_Network.leaf[0].H[1].tcp.conn-18 rcvAdv:vector ETV
attr interpolationmode sample-hold
5	162793 12 19 19 1 1 1 7504 7504 7504 56310016
vector 6 XHost_SpineLeaf_Network.leaf[0].H[1].tcp.conn-18 rcvWnd:vector ETV
attr interpolationmode sample-hold
6	162805 12 19 19 1 1 1 7504 7504 7504 56310016
vector 7 XHost_SpineLeaf_Network.leaf[0].H[1].tcp.conn-18 sndAck:vector ETV
attr interpolationmode sample-hold
7	162817 9 19 19 1 1 1 0 0 0 0
vector 8 XHost_SpineLeaf_Network.leaf[1].H[0].tcp.conn-19 tcpRcvQueueBytes:vector ETV
attr interpolationmode sample-hold
8	162826 9 20 20 1 1 1 0 0 0 0
vector 9 XHost_SpineLeaf_Network.leaf[1].H[0].tcp.conn-19 rcvAdv:vector ETV
attr interpolationmode sample-hold
9	162835 12 20 20 1 1 1 7504 7504 7504 56310016
vector 10 XHost_SpineLeaf_Network.leaf[1].H[0].tcp.conn-19 rcvWnd:vector ETV
attr interpolationmode sample-hold
10	162847 13 20 20 1 1 1 7504 7504 7504 56310016
vector 11 XHost_SpineLeaf_Network.leaf[1].H[0].tcp.conn-19 sndAck:vector ETV
attr interpolationmode sample-hold
11	162860 10 20 20 1 1 1 0 0 0 0
vector 12 XHost_SpineLeaf_Network.leaf[1].H[1].tcp.conn-20 tcpRcvQueueBytes:vector ETV
attr interpolationmode sample-hold
12	162870 10 21 21 1 1 1 0 0 0 0
vector 13 XHost_SpineLeaf_Network.leaf[1].H[1].tcp.conn-20 rcvAdv:vector ETV
attr interpolationmode sample-hold
13	162880 13 21 21 1 1 1 7504 7504 7504 56310016
vector 14 XHost_SpineLeaf_Network.leaf[1].H[1].tcp.conn-20 rcvWnd:vector ETV
attr interpolationmode sample-hold
14	162893 13 21 21 1 1 1 7504 7504 7504 56310016
vector 15 XHost_SpineLeaf_Network.leaf[1].H[1].tcp.conn-20 sndAck:vector ETV
attr interpolationmode sample-hold
15	162906 10 21 21 1 1 1 0 0 0 0
vector 16 XHost_SpineLeaf_Network.leaf[2].H[0].tcp.conn-21 tcpRcvQueueBytes:vector ETV
attr interpolationmode sample-hold
16	162916 10 22 22 1 1 1 0 0 0 0
vector 17 XHost_SpineLeaf_Network.leaf[2].H[0].tcp.conn-21 rcvAdv:vector ETV
attr interpolationmode sample-hold
17	162926 13 22 22 1 1 1 7504 7504 7504 56310016
vector 18 XHost_SpineLeaf_Network.leaf[2].H[0].tcp.conn-21 rcvWnd:vector ETV
attr interpolationmode sample-hold
18	162939 13 22 22 1 1 1 7504 7504 7504 56310016
vector 19 XHost_SpineLeaf_Network.leaf[2].H[0].tcp.conn-21 sndAck:vector ETV
attr interpolationmode sample-hold
19	162952 10 22 22 1 1 1 0 0 0 0
vector 20 XHost_SpineLeaf_Network.leaf[2].H[1].tcp.conn-22 tcpRcvQueueBytes:vector ETV
attr interpolationmode sample-hold
20	162962 10 23 23 1 1 1 0 0 0 0
vector 21 XHost_SpineLeaf_Network.leaf[2].H[1].tcp.conn-22 rcvAdv:vector ETV
attr interpolationmode sample-hold
21	162972 13 23 23 1 1 1 7504 7504 7504 56310016
vector 22 XHost_SpineLeaf_Network.leaf[2].H[1].tcp.conn-22 rcvWnd:vector ETV
attr interpolationmode sample-hold
22	162985 13 23 23 1 1 1 7504 7504 7504 56310016
vector 23 XHost_SpineLeaf_Network.leaf[2].H[1].tcp.conn-22 sndAck:vector ETV
attr interpolationmode sample-hold
23	162998 10 23 23 1 1 1 0 0 0 0
vector 24 XHost_SpineLeaf_Network.leaf[3].H[0].tcp.conn-23 tcpRcvQueueBytes:vector ETV
attr interpolationmode sample-hold
24	163008 10 24 24 1 1 1 0 0 0 0
vector 25 XHost_SpineLeaf_Network.leaf[3].H[0].tcp.conn-23 rcvAdv:vector ETV
attr interpolationmode sample-hold
25	163018 13 24 24 1 1 1 7504 7504 7504 56310016
vector 26 XHost_SpineLeaf_Network.leaf[3].H[0].tcp.conn-23 rcvWnd:vector ETV
attr interpolationmode sample-hold
26	163031 13 24 24 1 1 1 7504 7504 7504 56310016
vector 27 XHost_SpineLeaf_Network.leaf[3].H[0].tcp.conn-23 sndAck:vector ETV
attr interpolationmode sample-hold
27	163044 10 24 24 1 1 1 0 0 0 0
vector 28 XHost_SpineLeaf_Network.leaf[3].H[1].tcp.conn-24 tcpRcvQueueBytes:vector ETV
attr interpolationmode sample-hold
28	163054 10 25 25 1 1 1 0 0 0 0
vector 29 XHost_SpineLeaf_Network.leaf[3].H[1].tcp.conn-24 rcvAdv:vector ETV
attr interpolationmode sample-hold
29	163064 13 25 25 1 1 1 7504 7504 7504 56310016
vector 30 XHost_SpineLeaf_Network.leaf[3].H[1].tcp.conn-24 rcvWnd:vector ETV
attr interpolationmode sample-hold
30	163077 13 25 25 1 1 1 7504 7504 7504 56310016
vector 31 XHost_SpineLeaf_Network.leaf[3].H[1].tcp.conn-24 sndAck:vector ETV
attr interpolationmode sample-hold
31	163090 10 25 25 1 1 1 0 0 0 0
vector 32 XHost_SpineLeaf_Network.leaf[4].H[0].tcp.conn-25 tcpRcvQueueBytes:vector ETV
attr interpolationmode sample-hold
32	163100 10 26 26 1 1 1 0 0 0 0
vector 33 XHost_SpineLeaf_Network.leaf[4].H[0].tcp.conn-25 rcvAdv:vector ETV
attr interpolationmode sample-hold
33	163110 13 26 26 1 1 1 7504 7504 7504 56310016
vector 34 XHost_SpineLeaf_Network.leaf[4].H[0].tcp.conn-25 rcvWnd:vector ETV
attr interpolationmode sample-hold
34	163123 13 26 26 1 1 1 7504 7504 7504 56310016
vector 35 XHost_SpineLeaf_Network.leaf[4].H[0].tcp.conn-25 sndAck:vector ETV
attr interpolationmode sample-hold
35	163136 10 26 26 1 1 1 0 0 0 0
vector 36 XHost_SpineLeaf_Network.leaf[4].H[1].tcp.conn-26 tcpRcvQueueBytes:vector ETV
attr interpolationmode sample-hold
36	163146 10 27 27 1 1 1 0 0 0 0
vector 37 XHost_SpineLeaf_Network.leaf[4].H[1].tcp.conn-26 rcvAdv:vector ETV
attr interpolationmode sample-hold
37	163156 13 27 27 1 1 1 7504 7504 7504 56310016
vector 38 XHost_SpineLeaf_Network.leaf[4].H[1].tcp.conn-26 rcvWnd:vector ETV
attr interpolationmode sample-hold
38	163169 13 27 27 1 1 1 7504 7504 7504 56310016
vector 39 XHost_SpineLeaf_Network.leaf[4].H[1].tcp.conn-26 sndAck:vector ETV
attr interpolationmode sample-hold
39	163182 10 27 27 1 1 1 0 0 0 0
vector 40 XHost_SpineLeaf_Network.leaf[5].H[0].tcp.conn-27 tcpRcvQueueBytes:vector ETV
attr interpolationmode sample-hold
40	163192 10 28 28 1 1 1 0 0 0 0
vector 41 XHost_SpineLeaf_Network.leaf[5].H[0].tcp.conn-27 rcvAdv:vector ETV
attr interpolationmode sample-hold
41	163202 13 28 28 1 1 1 7504 7504 7504 56310016
vector 42 XHost_SpineLeaf_Network.leaf[5].H[0].tcp.conn-27 rcvWnd:vector ETV
attr interpolationmode sample-hold
42	163215 13 28 28 1 1 1 7504 7504 7504 56310016
vector 43 XHost_SpineLeaf_Network.leaf[5].H[0].tcp.conn-27 sndAck:vector ETV
attr interpolationmode sample-hold
43	163228 10 28 28 1 1 1 0 0 0 0
vector 44 XHost_SpineLeaf_Network.leaf[5].H[1].tcp.conn-28 tcpRcvQueueBytes:vector ETV
attr interpolationmode sample-hold
44	163238 10 29 29 1 1 1 0 0 0 0
vector 45 XHost_SpineLeaf_Network.leaf[5].H[1].tcp.conn-28 rcvAdv:vector ETV
attr interpolationmode sample-hold
45	163248 13 29 29 1 1 1 7504 7504 7504 56310016
vector 46 XHost_SpineLeaf_Network.leaf[5].H[1].tcp.conn-28 rcvWnd:vector ETV
attr interpolationmode sample-hold
46	163261 13 29 29 1 1 1 7504 7504 7504 56310016
vector 47 XHost_SpineLeaf_Network.leaf[5].H[1].tcp.conn-28 sndAck:vector ETV
attr interpolationmode sample-hold
47	163274 10 29 29 1 1 1 0 0 0 0
vector 48 XHost_SpineLeaf_Network.leaf[6].H[0].tcp.conn-29 tcpRcvQueueBytes:vector ETV
attr interpolationmode sample-hold
48	163284 10 30 30 1 1 1 0 0 0 0
vector 49 XHost_SpineLeaf_Network.leaf[6].H[0].tcp.conn-29 rcvAdv:vector ETV
attr interpolationmode sample-hold
49	163294 13 30 30 1 1 1 7504 7504 7504 56310016
vector 50 XHost_SpineLeaf_Network.leaf[6].H[0].tcp.conn-29 rcvWnd:vector ETV
attr interpolationmode sample-hold
50	163307 13 30 30 1 1 1 7504 7504 7504 56310016
vector 51 XHost_SpineLeaf_Network.leaf[6].H[0].tcp.conn-29 sndAck:vector ETV
attr interpolationmode sample-hold
51	163320 10 30 30 1 1 1 0 0 0 0
vector 52 XHost_SpineLeaf_Network.leaf[6].H[1].tcp.conn-30 tcpRcvQueueBytes:vector ETV
attr interpolationmode sample-hold
52	163330 10 31 31 1 1 1 0 0 0 0
vector 53 XHost_SpineLeaf_Network.leaf[6].H[1].tcp.conn-30 rcvAdv:vector ETV
attr interpolationmode sample-hold
53	163340 13 31 31 1 1 1 7504 7504 7504 56310016
vector 54 XHost_SpineLeaf_Network.leaf[6].H[1].tcp.conn-30 rcvWnd:vector ETV
attr interpolationmode sample-hold
54	163353 13 31 31 1 1 1 7504 7504 7504 56310016
vector 55 XHost_SpineLeaf_Network.leaf[6].H[1].tcp.conn-30 sndAck:vector ETV
attr interpolationmode sample-hold
55	163366 10 31 31 1 1 1 0 0 0 0
vector 56 XHost_SpineLeaf_Network.leaf[7].H[0].tcp.conn-31 tcpRcvQueueBytes:vector ETV
attr interpolationmode sample-hold
56	163376 10 32 32 1 1 1 0 0 0 0
vector 57 XHost_SpineLeaf_Network.leaf[7].H[0].tcp.conn-31 rcvAdv:vector ETV
attr interpolationmode sample-hold
57	163386 13 32 32 1 1 1 7504 7504 7504 56310016
vector 58 XHost_SpineLeaf_Network.leaf[7].H[0].tcp.conn-31 rcvWnd:vector ETV
attr interpolationmode sample-hold
58	163399 13 32 32 1 1 1 7504 7504 7504 56310016
vector 59 XHost_SpineLeaf_Network.leaf[7].H[0].tcp.conn-31 sndAck:vector ETV
attr interpolationmode sample-hold
59	163412 10 32 32 1 1 1 0 0 0 0
vector 60 XHost_SpineLeaf_Network.leaf[7].H[1].tcp.conn-32 tcpRcvQueueBytes:vector ETV
attr interpolationmode sample-hold
60	163422 10 33 33 1 1 1 0 0 0 0
vector 61 XHost_SpineLeaf_Network.leaf[7].H[1].tcp.conn-32 rcvAdv:vector ETV
attr interpolationmode sample-hold
61	163432 13 33 33 1 1 1 7504 7504 7504 56310016
vector 62 XHost_SpineLeaf_Network.leaf[7].H[1].tcp.conn-32 rcvWnd:vector ETV
attr interpolationmode sample-hold
62	163445 13 33 33 1 1 1 7504 7504 7504 56310016
vector 63 XHost_SpineLeaf_Network.leaf[7].H[1].tcp.conn-32 sndAck:vector ETV
attr interpolationmode sample-hold
63	163458 10 33 33 1 1 1 0 0 0 0
vector 64 XHost_SpineLeaf_Network.leaf[0].H[0].ipv4.arp arpRequestSent:vector(packetBytes) ETV
attr source arpRequestSent
attr title "ARP request sent, vector(packetBytes)"
64	163468 11 34 34 1 1 1 28 28 28 784
vector 65 XHost_SpineLeaf_Network.leaf[0].H[1].ipv4.arp arpRequestSent:vector(packetBytes) ETV
attr source arpRequestSent
attr title "ARP request sent, vector(packetBytes)"
65	163479 11 35 35 1 1 1 28 28 28 784
vector 66 XHost_SpineLeaf_Network.leaf[1].H[0].ipv4.arp arpRequestSent:vector(packetBytes) ETV
attr source arpRequestSent
attr title "ARP request sent, vector(packetBytes)"
66	163490 11 36 36 1 1 1 28 28 28 784
vector 67 XHost_SpineLeaf_Network.leaf[1].H[1].ipv4.arp arpRequestSent:vector(packetBytes) ETV
attr source arpRequestSent
attr title "ARP request sent, vector(packetBytes)"
67	163501 11 37 37 1 1 1 28 28 28 784
vector 68 XHost_SpineLeaf_Network.leaf[2].H[0].ipv4.arp arpRequestSent:vector(packetBytes) ETV
attr source arpRequestSent
attr title "ARP request sent, vector(packetBytes)"
68	163512 11 38 38 1 1 1 28 28 28 784
vector 69 XHost_SpineLeaf_Network.leaf[2].H[1].ipv4.arp arpRequestSent:vector(packetBytes) ETV
attr source arpRequestSent
attr title "ARP request sent, vector(packetBytes)"
69	163523 11 39 39 1 1 1 28 28 28 784
vector 70 XHost_SpineLeaf_Network.leaf[3].H[0].ipv4.arp arpRequestSent:vector(packetBytes) ETV
attr source arpRequestSent
attr title "ARP request sent, vector(packetBytes)"
70	163534 11 40 40 1 1 1 28 28 28 784
vector 71 XHost_SpineLeaf_Network.leaf[3].H[1].ipv4.arp arpRequestSent:vector(packetBytes) ETV
attr source arpRequestSent
attr title "ARP request sent, vector(packetBytes)"
71	163545 11 41 41 1 1 1 28 28 28 784
vector 72 XHost_SpineLeaf_Network.leaf[4].H[0].ipv4.arp arpRequestSent:vector(packetBytes) ETV
attr source arpRequestSent
attr title "ARP request sent, vector(packetBytes)"
72	163556 11 42 42 1 1 1 28 28 28 784
vector 73 XHost_SpineLeaf_Network.leaf[4].H[1].ipv4.arp arpRequestSent:vector(packetBytes) ETV
attr source arpRequestSent
attr title "ARP request sent, vector(packetBytes)"
73	163567 11 43 43 1 1 1 28 28 28 784
vector 74 XHost_SpineLeaf_Network.leaf[5].H[0].ipv4.arp arpRequestSent:vector(packetBytes) ETV
attr source arpRequestSent
attr title "ARP request sent, vector(packetBytes)"
74	163578 11 44 44 1 1 1 28 28 28 784
vector 75 XHost_SpineLeaf_Network.leaf[5].H[1].ipv4.arp arpRequestSent:vector(packetBytes) ETV
attr source arpRequestSent
attr title "ARP request sent, vector(packetBytes)"
75	163589 11 45 45 1 1 1 28 28 28 784
vector 76 XHost_SpineLeaf_Network.leaf[6].H[0].ipv4.arp arpRequestSent:vector(packetBytes) ETV
attr source arpRequestSent
attr title "ARP request sent, vector(packetBytes)"
76	163600 11 46 46 1 1 1 28 28 28 784
vector 77 XHost_SpineLeaf_Network.leaf[6].H[1].ipv4.arp arpRequestSent:vector(packetBytes) ETV
attr source arpRequestSent
attr title "ARP request sent, vector(packetBytes)"
77	163611 11 47 47 1 1 1 28 28 28 784
vector 78 XHost_SpineLeaf_Network.leaf[7].H[0].ipv4.arp arpRequestSent:vector(packetBytes) ETV
attr source arpRequestSent
attr title "ARP request sent, vector(packetBytes)"
78	163622 11 48 48 1 1 1 28 28 28 784
vector 79 XHost_SpineLeaf_Network.leaf[7].H[1].ipv4.arp arpRequestSent:vector(packetBytes) ETV
attr source arpRequestSent
attr title "ARP request sent, vector(packetBytes)"
79	163633 11 49 49 1 1 1 28 28 28 784
vector 80 XHost_SpineLeaf_Network.leaf[0].H[0].eth[0].encap encapPk:vector(packetBytes) ETV
attr interpolationmode none
attr source encapPk
attr title "packets encapsulated, vector(packetBytes)"
80	163644 32 50 258 1 1.00001162 2 28 44 72 2720
vector 81 XHost_SpineLeaf_Network.leaf[0].H[1].eth[0].encap encapPk:vector(packetBytes) ETV
attr interpolationmode none
attr source encapPk
attr title "packets encapsulated, vector(packetBytes)"
81	163676 32 51 259 1 1.00001162 2 28 44 72 2720
vector 82 XHost_SpineLeaf_Network.leaf[1].H[0].eth[0].encap encapPk:vector(packetBytes) ETV
attr interpolationmode none
attr source encapPk
attr title "packets encapsulated, vector(packetBytes)"
82	163708 32 52 260 1 1.00001162 2 28 44 72 2720
vector 83 XHost_SpineLeaf_Network.leaf[1].H[1].eth[0].encap encapPk:vector(packetBytes) ETV
attr interpolationmode none
attr source encapPk
attr title "packets encapsulated, vector(packetBytes)"
83	163740 32 53 261 1 1.00001162 2 28 44 72 2720
vector 84 XHost_SpineLeaf_Network.leaf[2].H[0].eth[0].encap encapPk:vector(packetBytes) ETV
attr interpolationmode none
attr source encapPk
attr title "packets encapsulated, vector(packetBytes)"
84	163772 32 54 262 1 1.00001162 2 28 44 72 2720
vector 85 XHost_SpineLeaf_Network.leaf[2].H[1].eth[0].encap encapPk:vector(packetBytes) ETV
attr interpolationmode none
attr source encapPk
attr title "packets encapsulated, vector(packetBytes)"
85	163804 32 55 263 1 1.00001162 2 28 44 72 2720
vector 86 XHost_SpineLeaf_Network.leaf[3].H[0].eth[0].encap encapPk:vector(packetBytes) ETV
attr interpolationmode none
attr source encapPk
attr title "packets encapsulated, vector(packetBytes)"
86	163836 32 56 264 1 1.00001162 2 28 44 72 2720
vector 87 XHost_SpineLeaf_Network.leaf[3].H[1].eth[0].encap encapPk:vector(packetBytes) ETV
attr interpolationmode none
attr source encapPk
attr title "packets encapsulated, vector(packetBytes)"
87	163868 32 57 265 1 1.00001162 2 28 44 72 2720
vector 88 XHost_SpineLeaf_Network.leaf[4].H[0].eth[0].encap encapPk:vector(packetBytes) ETV
attr interpolationmode none
attr source encapPk
attr title "packets encapsulated, vector(packetBytes)"
88	163900 32 58 266 1 1.00001162 2 28 44 72 2720
vector 89 XHost_SpineLeaf_Network.leaf[4].H[1].eth[0].encap encapPk:vector(packetBytes) ETV
attr interpolationmode none
attr source encapPk
attr title "packets encapsulated, vector(packetBytes)"
89	163932 32 59 267 1 1.00001162 2 28 44 72 2720
vector 90 XHost_SpineLeaf_Network.leaf[5].H[0].eth[0].encap encapPk:vector(packetBytes) ETV
attr interpolationmode none
attr source encapPk
attr title "packets encapsulated, vector(packetBytes)"
90	163964 32 60 268 1 1.00001162 2 28 44 72 2720
vector 91 XHost_SpineLeaf_Network.leaf[5].H[1].eth[0].encap encapPk:vector(packetBytes) ETV
attr interpolationmode none
attr source encapPk
attr title "packets encapsulated, vector(packetBytes)"
91	163996 32 61 269 1 1.00001162 2 28 44 72 2720
vector 92 XHost_SpineLeaf_Network.leaf[6].H[0].eth[0].encap encapPk:vector(packetBytes) ETV
attr interpolationmode none
attr source encapPk
attr title "packets encapsulated, vector(packetBytes)"
92	164028 32 62 270 1 1.00001162 2 28 44 72 2720
vector 93 XHost_SpineLeaf_Network.leaf[6].H[1].eth[0].encap encapPk:vector(packetBytes) ETV
attr interpolationmode none
attr source encapPk
attr title "packets encapsulated, vector(packetBytes)"
93	164060 32 63 271 1 1.00001162 2 28 44 72 2720
vector 94 XHost_SpineLeaf_Network.leaf[7].H[0].eth[0].encap encapPk:vector(packetBytes) ETV
attr interpolationmode none
attr source encapPk
attr title "packets encapsulated, vector(packetBytes)"
94	164092 32 64 272 1 1.00001162 2 28 44 72 2720
vector 95 XHost_SpineLeaf_Network.leaf[7].H[1].eth[0].encap encapPk:vector(packetBytes) ETV
attr interpolationmode none
attr source encapPk
attr title "packets encapsulated, vector(packetBytes)"
95	164124 32 65 273 1 1.00001162 2 28 44 72 2720
vector 96 XHost_SpineLeaf_Network.leaf[0].H[0].eth[0].mac packetReceivedFromUpper:vector(packetBytes) ETV
attr interpolationmode none
attr source packetReceivedFromUpper
attr title "packet bytes from higher layer, vector(packetBytes)"
96	164156 32 66 274 1 1.00001162 2 46 62 108 5960
vector 97 XHost_SpineLeaf_Network.leaf[0].H[0].eth[0].mac.queue packetPushed:vector(packetBytes) ETV
attr interpolationmode none
attr title "packet pushed, vector(packetBytes)"
97	164188 32 66 274 1 1.00001162 2 64 64 128 8192
vector 98 XHost_SpineLeaf_Network.leaf[0].H[0].eth[0].mac.queue queueLength:vector ETV
attr interpolationmode sample-hold
attr source "count(packetPushed) - count(packetPopped) - count(packetRemoved) - count(packetDropped)"
attr title "queue length, vector"
98	164220 60 66 274 1 1.00001162 4 0 1 2 2
vector 99 XHost_SpineLeaf_Network.leaf[0].H[0].eth[0].mac.queue packetPopped:vector(packetBytes) ETV
attr interpolationmode none
attr title "packet popped, vector(packetBytes)"
99	164280 32 66 274 1 1.00001162 2 64 64 128 8192
vector 100 XHost_SpineLeaf_Network.leaf[0].H[0].eth[0].mac.queue queueingTime:vector ETV
attr interpolationmode none
attr source queueingTime(packetPopped)
attr title "queueing times, vector"
attr unit s
100	164312 32 66 274 1 1.00001162 2 0 0 0 0
vector 101 XHost_SpineLeaf_Network.leaf[0].H[1].eth[0].mac packetReceivedFromUpper:vector(packetBytes) ETV
attr interpolationmode none
attr source packetReceivedFromUpper
attr title "packet bytes from higher layer, vector(packetBytes)"
101	164344 34 67 275 1 1.00001162 2 46 62 108 5960
vector 102 XHost_SpineLeaf_Network.leaf[0].H[1].eth[0].mac.queue packetPushed:vector(packetBytes) ETV
attr interpolationmode none
attr title "packet pushed, vector(packetBytes)"
102	164378 34 67 275 1 1.00001162 2 64 64 128 8192
vector 103 XHost_SpineLeaf_Network.leaf[0].H[1].eth[0].mac.queue queueLength:vector ETV
attr interpolationmode sample-hold
attr source "count(packetPushed) - count(packetPopped) - count(packetRemoved) - count(packetDropped)"
attr title "queue length, vector"
103	164412 64 67 275 1 1.00001162 4 0 1 2 2
vector 104 XHost_SpineLeaf_Network.leaf[0].H[1].eth[0].mac.queue packetPopped:vector(packetBytes) ETV
attr interpolationmode none
attr title "packet popped, vector(packetBytes)"
104	164476 34 67 275 1 1.00001162 2 64 64 128 8192
vector 105 XHost_SpineLeaf_Network.leaf[0].H[1].eth[0].mac.queue queueingTime:vector ETV
attr interpolationmode none
attr source queueingTime(packetPopped)
attr title "queueing times, vector"
attr unit s
105	164510 32 67 275 1 1.00001162 2 0 0 0 0
vector 106 XHost_SpineLeaf_Network.leaf[1].H[0].eth[0].mac packetReceivedFromUpper:vector(packetBytes) ETV
attr interpolationmode none
attr source packetReceivedFromUpper
attr title "packet bytes from higher layer, vector(packetBytes)"
106	164542 34 68 276 1 1.00001162 2 46 62 108 5960
vector 107 XHost_SpineLeaf_Network.leaf[1].H[0].eth[0].mac.queue packetPushed:vector(packetBytes) ETV
attr interpolationmode none
attr title "packet pushed, vector(packetBytes)"
107	164576 34 68 276 1 1.00001162 2 64 64 128 8192
vector 108 XHost_SpineLeaf_Network.leaf[1].H[0].eth[0].mac.queue queueLength:vector ETV
attr interpolationmode sample-hold
attr source "count(packetPushed) - count(packetPopped) - count(packetRemoved) - count(packetDropped)"
attr title "queue length, vector"
108	164610 64 68 276 1 1.00001162 4 0 1 2 2
vector 109 XHost_SpineLeaf_Network.leaf[1].H[0].eth[0].mac.queue packetPopped:vector(packetBytes) ETV
attr interpolationmode none
attr title "packet popped, vector(packetBytes)"
109	164674 34 68 276 1 1.00001162 2 64 64 128 8192
vector 110 XHost_SpineLeaf_Network.leaf[1].H[0].eth[0].mac.queue queueingTime:vector ETV
attr interpolationmode none
attr source queueingTime(packetPopped)
attr title "queueing times, vector"
attr unit s
110	164708 32 68 276 1 1.00001162 2 0 0 0 0
vector 111 XHost_SpineLeaf_Network.leaf[1].H[1].eth[0].mac packetReceivedFromUpper:vector(packetBytes) ETV
attr interpolationmode none
attr source packetReceivedFromUpper
attr title "packet bytes from higher layer, vector(packetBytes)"
111	164740 34 69 277 1 1.00001162 2 46 62 108 5960
vector 112 XHost_SpineLeaf_Network.leaf[1].H[1].eth[0].mac.queue packetPushed:vector(packetBytes) ETV
attr interpolationmode none
attr title "packet pushed, vector(packetBytes)"
112	164774 34 69 277 1 1.00001162 2 64 64 128 8192
vector 113 XHost_SpineLeaf_Network.leaf[1].H[1].eth[0].mac.queue queueLength:vector ETV
attr interpolationmode sample-hold
attr source "count(packetPushed) - count(packetPopped) - count(packetRemoved) - count(packetDropped)"
attr title "queue length, vector"
113	164808 64 69 277 1 1.00001162 4 0 1 2 2
vector 114 XHost_SpineLeaf_Network.leaf[1].H[1].eth[0].mac.queue packetPopped:vector(packetBytes) ETV
attr interpolationmode none
attr title "packet popped, vector(packetBytes)"
114	164872 34 69 277 1 1.00001162 2 64 64 128 8192
vector 115 XHost_SpineLeaf_Network.leaf[1].H[1].eth[0].mac.queue queueingTime:vector ETV
attr interpolationmode none
attr source queueingTime(packetPopped)
attr title "queueing times, vector"
attr unit s
115	164906 32 69 277 1 1.00001162 2 0 0 0 0
vector 116 XHost_SpineLeaf_Network.leaf[2].H[0].eth[0].mac packetReceivedFromUpper:vector(packetBytes) ETV
attr interpolationmode none
attr source packetReceivedFromUpper
attr title "packet bytes from higher layer, vector(packetBytes)"
116	164938 34 70 278 1 1.00001162 2 46 62 108 5960
vector 117 XHost_SpineLeaf_Network.leaf[2].H[0].eth[0].mac.queue packetPushed:vector(packetBytes) ETV
attr interpolationmode none
attr title "packet pushed, vector(packetBytes)"
117	164972 34 70 278 1 1.00001162 2 64 64 128 8192
vector 118 XHost_SpineLeaf_Network.leaf[2].H[0].eth[0].mac.queue queueLength:vector ETV
attr interpolationmode sample-hold
attr source "count(packetPushed) - count(packetPopped) - count(packetRemoved) - count(packetDropped)"
attr title "queue length, vector"
118	165006 64 70 278 1 1.00001162 4 0 1 2 2
vector 119 XHost_SpineLeaf_Network.leaf[2].H[0].eth[0].mac.queue packetPopped:vector(packetBytes) ETV
attr interpolationmode none
attr title "packet popped, vector(packetBytes)"
119	165070 34 70 278 1 1.00001162 2 64 64 128 8192
vector 120 XHost_SpineLeaf_Network.leaf[2].H[0].eth[0].mac.queue queueingTime:vector ETV
attr interpolationmode none
attr source queueingTime(packetPopped)
attr title "queueing times, vector"
attr unit s
120	165104 32 70 278 1 1.00001162 2 0 0 0 0
vector 121 XHost_SpineLeaf_Network.leaf[2].H[1].eth[0].mac packetReceivedFromUpper:vector(packetBytes) ETV
attr interpolationmode none
attr source packetReceivedFromUpper
attr title "packet bytes from higher layer, vector(packetBytes)"
121	165136 34 71 279 1 1.00001162 2 46 62 108 5960
vector 122 XHost_SpineLeaf_Network.leaf[2].H[1].eth[0].mac.queue packetPushed:vector(packetBytes) ETV
attr interpolationmode none
attr title "packet pushed, vector(packetBytes)"
122	165170 34 71 279 1 1.00001162 2 64 64 128 8192
vector 123 XHost_SpineLeaf_Network.leaf[2].H[1].eth[0].mac.queue queueLength:vector ETV
attr interpolationmode sample-hold
attr source "count(packetPushed) - count(packetPopped) - count(packetRemoved) - count(packetDropped)"
attr title "queue length, vector"
123	165204 64 71 279 1 1.00001162 4 0 1 2 2
vector 124 XHost_SpineLeaf_Network.leaf[2].H[1].eth[0].mac.queue packetPopped:vector(packetBytes) ETV
attr interpolationmode none
attr title "packet popped, vector(packetBytes)"
124	165268 34 71 279 1 1.00001162 2 64 64 128 8192
vector 125 XHost_SpineLeaf_Network.leaf[2].H[1].eth[0].mac.queue queueingTime:vector ETV
attr interpolationmode none
attr source queueingTime(packetPopped)
attr title "queueing times, vector"
attr unit s
125	165302 32 71 279 1 1.00001162 2 0 0 0 0
vector 126 XHost_SpineLeaf_Network.leaf[3].H[0].eth[0].mac packetReceivedFromUpper:vector(packetBytes) ETV
attr interpolationmode none
attr source packetReceivedFromUpper
attr title "packet bytes from higher layer, vector(packetBytes)"
126	165334 34 72 280 1 1.00001162 2 46 62 108 5960
vector 127 XHost_SpineLeaf_Network.leaf[3].H[0].eth[0].mac.queue packetPushed:vector(packetBytes) ETV
attr interpolationmode none
attr title "packet pushed, vector(packetBytes)"
127	165368 34 72 280 1 1.00001162 2 64 64 128 8192
vector 128 XHost_SpineLeaf_Network.leaf[3].H[0].eth[0].mac.queue queueLength:vector ETV
attr interpolationmode sample-hold
attr source "count(packetPushed) - count(packetPopped) - count(packetRemoved) - count(packetDropped)"
attr title "queue length, vector"
128	165402 64 72 280 1 1.00001162 4 0 1 2 2
vector 129 XHost_SpineLeaf_Network.leaf[3].H[0].eth[0].mac.queue packetPopped:vector(packetBytes) ETV
attr interpolationmode none
attr title "packet popped, vector(packetBytes)"
129	165466 34 72 280 1 1.00001162 2 64 64 128 8192
vector 130 XHost_SpineLeaf_Network.leaf[3].H[0].eth[0].mac.queue queueingTime:vector ETV
attr interpolationmode none
attr source queueingTime(packetPopped)
attr title "queueing times, vector"
attr unit s
130	165500 32 72 280 1 1.00001162 2 0 0 0 0
vector 131 XHost_SpineLeaf_Network.leaf[3].H[1].eth[0].mac packetReceivedFromUpper:vector(packetBytes) ETV
attr interpolationmode none
attr source packetReceivedFromUpper
attr title "packet bytes from higher layer, vector(packetBytes)"
131	165532 34 73 281 1 1.00001162 2 46 62 108 5960
vector 132 XHost_SpineLeaf_Network.leaf[3].H[1].eth[0].mac.queue packetPushed:vector(packetBytes) ETV
attr interpolationmode none
attr title "packet pushed, vector(packetBytes)"
132	165566 34 73 281 1 1.00001162 2 64 64 128 8192
vector 133 XHost_SpineLeaf_Network.leaf[3].H[1].eth[0].mac.queue queueLength:vector ETV
attr interpolationmode sample-hold
attr source "count(packetPushed) - count(packetPopped) - count(packetRemoved) - count(packetDropped)"
attr title "queue length, vector"
133	165600 64 73 281 1 1.00001162 4 0 1 2 2
vector 134 XHost_SpineLeaf_Network.leaf[3].H[1].eth[0].mac.queue packetPopped:vector(packetBytes) ETV
attr interpolationmode none
attr title "packet popped, vector(packetBytes)"
134	165664 34 73 281 1 1.00001162 2 64 64 128 8192
vector 135 XHost_SpineLeaf_Network.leaf[3].H[1].eth[0].mac.queue queueingTime:vector ETV
attr interpolationmode none
attr source queueingTime(packetPopped)
attr title "queueing times, vector"
attr unit s
135	165698 32 73 281 1 1.00001162 2 0 0 0 0
vector 136 XHost_SpineLeaf_Network.leaf[4].H[0].eth[0].mac packetReceivedFromUpper:vector(packetBytes) ETV
attr interpolationmode none
attr source packetReceivedFromUpper
attr title "packet bytes from higher layer, vector(packetBytes)"
136	165730 34 74 282 1 1.00001162 2 46 62 108 5960
vector 137 XHost_SpineLeaf_Network.leaf[4].H[0].eth[0].mac.queue packetPushed:vector(packetBytes) ETV
attr interpolationmode none
attr title "packet pushed, vector(packetBytes)"
137	165764 34 74 282 1 1.00001162 2 64 64 128 8192
vector 138 XHost_SpineLeaf_Network.leaf[4].H[0].eth[0].mac.queue queueLength:vector ETV
attr interpolationmode sample-hold
attr source "count(packetPushed) - count(packetPopped) - count(packetRemoved) - count(packetDropped)"
attr title "queue length, vector"
138	165798 64 74 282 1 1.00001162 4 0 1 2 2
vector 139 XHost_SpineLeaf_Network.leaf[4].H[0].eth[0].mac.queue packetPopped:vector(packetBytes) ETV
attr interpolationmode none
attr title "packet popped, vector(packetBytes)"
139	165862 34 74 282 1 1.00001162 2 64 64 128 8192
vector 140 XHost_SpineLeaf_Network.leaf[4].H[0].eth[0].mac.queue queueingTime:vector ETV
attr interpolationmode none
attr source queueingTime(packetPopped)
attr title "queueing times, vector"
attr unit s
140	165896 32 74 282 1 1.00001162 2 0 0 0 0
vector 141 XHost_SpineLeaf_Network.leaf[4].H[1].eth[0].mac packetReceivedFromUpper:vector(packetBytes) ETV
attr interpolationmode none
attr source packetReceivedFromUpper
attr title "packet bytes from higher layer, vector(packetBytes)"
141	165928 34 75 283 1 1.00001162 2 46 62 108 5960
vector 142 XHost_SpineLeaf_Network.leaf[4].H[1].eth[0].mac.queue packetPushed:vector(packetBytes) ETV
attr interpolationmode none
attr title "packet pushed, vector(packetBytes)"
142	165962 34 75 283 1 1.00001162 2 64 64 128 8192
vector 143 XHost_SpineLeaf_Network.leaf[4].H[1].eth[0].mac.queue queueLength:vector ETV
attr interpolationmode sample-hold
attr source "count(packetPushed) - count(packetPopped) - count(packetRemoved) - count(packetDropped)"
attr title "queue length, vector"
143	165996 64 75 283 1 1.00001162 4 0 1 2 2
vector 144 XHost_SpineLeaf_Network.leaf[4].H[1].eth[0].mac.queue packetPopped:vector(packetBytes) ETV
attr interpolationmode none
attr title "packet popped, vector(packetBytes)"
144	166060 34 75 283 1 1.00001162 2 64 64 128 8192
vector 145 XHost_SpineLeaf_Network.leaf[4].H[1].eth[0].mac.queue queueingTime:vector ETV
attr interpolationmode none
attr source queueingTime(packetPopped)
attr title "queueing times, vector"
attr unit s
145	166094 32 75 283 1 1.00001162 2 0 0 0 0
vector 146 XHost_SpineLeaf_Network.leaf[5].H[0].eth[0].mac packetReceivedFromUpper:vector(packetBytes) ETV
attr interpolationmode none
attr source packetReceivedFromUpper
attr title "packet bytes from higher layer, vector(packetBytes)"
146	166126 34 76 284 1 1.00001162 2 46 62 108 5960
vector 147 XHost_SpineLeaf_Network.leaf[5].H[0].eth[0].mac.queue packetPushed:vector(packetBytes) ETV
attr interpolationmode none
attr title "packet pushed, vector(packetBytes)"
147	166160 34 76 284 1 1.00001162 2 64 64 128 8192
vector 148 XHost_SpineLeaf_Network.leaf[5].H[0].eth[0].mac.queue queueLength:vector ETV
attr interpolationmode sample-hold
attr source "count(packetPushed) - count(packetPopped) - count(packetRemoved) - count(packetDropped)"
attr title "queue length, vector"
148	166194 64 76 284 1 1.00001162 4 0 1 2 2
vector 149 XHost_SpineLeaf_Network.leaf[5].H[0].eth[0].mac.queue packetPopped:vector(packetBytes) ETV
attr interpolationmode none
attr title "packet popped, vector(packetBytes)"
149	166258 34 76 284 1 1.00001162 2 64 64 128 8192
vector 150 XHost_SpineLeaf_Network.leaf[5].H[0].eth[0].mac.queue queueingTime:vector ETV
attr interpolationmode none
attr source queueingTime(packetPopped)
attr title "queueing times, vector"
attr unit s
150	166292 32 76 284 1 1.00001162 2 0 0 0 0
vector 151 XHost_SpineLeaf_Network.leaf[5].H[1].eth[0].mac packetReceivedFromUpper:vector(packetBytes) ETV
attr interpolationmode none
attr source packetReceivedFromUpper
attr title "packet bytes from higher layer, vector(packetBytes)"
151	166324 34 77 285 1 1.00001162 2 46 62 108 5960
vector 152 XHost_SpineLeaf_Network.leaf[5].H[1].eth[0].mac.queue packetPushed:vector(packetBytes) ETV
attr interpolationmode none
attr title "packet pushed, vector(packetBytes)"
152	166358 34 77 285 1 1.00001162 2 64 64 128 8192
vector 153 XHost_SpineLeaf_Network.leaf[5].H[1].eth[0].mac.queue queueLength:vector ETV
attr interpolationmode sample-hold
attr source "count(packetPushed) - count(packetPopped) - count(packetRemoved) - count(packetDropped)"
attr title "queue length, vector"
153	166392 64 77 285 1 1.00001162 4 0 1 2 2
vector 154 XHost_SpineLeaf_Network.leaf[5].H[1].eth[0].mac.queue packetPopped:vector(packetBytes) ETV
attr interpolationmode none
attr title "packet popped, vector(packetBytes)"
154	166456 34 77 285 1 1.00001162 2 64 64 128 8192
vector 155 XHost_SpineLeaf_Network.leaf[5].H[1].eth[0].mac.queue queueingTime:vector ETV
attr interpolationmode none
attr source queueingTime(packetPopped)
attr title "queueing times, vector"
attr unit s
155	166490 32 77 285 1 1.00001162 2 0 0 0 0
vector 156 XHost_SpineLeaf_Network.leaf[6].H[0].eth[0].mac packetReceivedFromUpper:vector(packetBytes) ETV
attr interpolationmode none
attr source packetReceivedFromUpper
attr title "packet bytes from higher layer, vector(packetBytes)"
156	166522 34 78 286 1 1.00001162 2 46 62 108 5960
vector 157 XHost_SpineLeaf_Network.leaf[6].H[0].eth[0].mac.queue packetPushed:vector(packetBytes) ETV
attr interpolationmode none
attr title "packet pushed, vector(packetBytes)"
157	166556 34 78 286 1 1.00001162 2 64 64 128 8192
vector 158 XHost_SpineLeaf_Network.leaf[6].H[0].eth[0].mac.queue queueLength:vector ETV
attr interpolationmode sample-hold
attr source "count(packetPushed) - count(packetPopped) - count(packetRemoved) - count(packetDropped)"
attr title "queue length, vector"
158	166590 64 78 286 1 1.00001162 4 0 1 2 2
vector 159 XHost_SpineLeaf_Network.leaf[6].H[0].eth[0].mac.queue packetPopped:vector(packetBytes) ETV
attr interpolationmode none
attr title "packet popped, vector(packetBytes)"
159	166654 34 78 286 1 1.00001162 2 64 64 128 8192
vector 160 XHost_SpineLeaf_Network.leaf[6].H[0].eth[0].mac.queue queueingTime:vector ETV
attr interpolationmode none
attr source queueingTime(packetPopped)
attr title "queueing times, vector"
attr unit s
160	166688 32 78 286 1 1.00001162 2 0 0 0 0
vector 161 XHost_SpineLeaf_Network.leaf[6].H[1].eth[0].mac packetReceivedFromUpper:vector(packetBytes) ETV
attr interpolationmode none
attr source packetReceivedFromUpper
attr title "packet bytes from higher layer, vector(packetBytes)"
161	166720 34 79 287 1 1.00001162 2 46 62 108 5960
vector 162 XHost_SpineLeaf_Network.leaf[6].H[1].eth[0].mac.queue packetPushed:vector(packetBytes) ETV
attr interpolationmode none
attr title "packet pushed, vector(packetBytes)"
162	166754 34 79 287 1 1.00001162 2 64 64 128 8192
vector 163 XHost_SpineLeaf_Network.leaf[6].H[1].eth[0].mac.queue queueLength:vector ETV
attr interpolationmode sample-hold
attr source "count(packetPushed) - count(packetPopped) - count(packetRemoved) - count(packetDropped)"
attr title "queue length, vector"
163	166788 64 79 287 1 1.00001162 4 0 1 2 2
vector 164 XHost_SpineLeaf_Network.leaf[6].H[1].eth[0].mac.queue packetPopped:vector(packetBytes) ETV
attr interpolationmode none
attr title "packet popped, vector(packetBytes)"
164	166852 34 79 287 1 1.00001162 2 64 64 128 8192
vector 165 XHost_SpineLeaf_Network.leaf[6].H[1].eth[0].mac.queue queueingTime:vector ETV
attr interpolationmode none
attr source queueingTime(packetPopped)
attr title "queueing times, vector"
attr unit s
165	166886 32 79 287 1 1.00001162 2 0 0 0 0
vector 166 XHost_SpineLeaf_Network.leaf[7].H[0].eth[0].mac packetReceivedFromUpper:vector(packetBytes) ETV
attr interpolationmode none
attr source packetReceivedFromUpper
attr title "packet bytes from higher layer, vector(packetBytes)"
166	166918 34 80 288 1 1.00001162 2 46 62 108 5960
vector 167 XHost_SpineLeaf_Network.leaf[7].H[0].eth[0].mac.queue packetPushed:vector(packetBytes) ETV
attr interpolationmode none
attr title "packet pushed, vector(packetBytes)"
167	166952 34 80 288 1 1.00001162 2 64 64 128 8192
vector 168 XHost_SpineLeaf_Network.leaf[7].H[0].eth[0].mac.queue queueLength:vector ETV
attr interpolationmode sample-hold
attr source "count(packetPushed) - count(packetPopped) - count(packetRemoved) - count(packetDropped)"
attr title "queue length, vector"
168	166986 64 80 288 1 1.00001162 4 0 1 2 2
vector 169 XHost_SpineLeaf_Network.leaf[7].H[0].eth[0].mac.queue packetPopped:vector(packetBytes) ETV
attr interpolationmode none
attr title "packet popped, vector(packetBytes)"
169	167050 34 80 288 1 1.00001162 2 64 64 128 8192
vector 170 XHost_SpineLeaf_Network.leaf[7].H[0].eth[0].mac.queue queueingTime:vector ETV
attr interpolationmode none
attr source queueingTime(packetPopped)
attr title "queueing times, vector"
attr unit s
170	167084 32 80 288 1 1.00001162 2 0 0 0 0
vector 171 XHost_SpineLeaf_Network.leaf[7].H[1].eth[0].mac packetReceivedFromUpper:vector(packetBytes) ETV
attr interpolationmode none
attr source packetReceivedFromUpper
attr title "packet bytes from higher layer, vector(packetBytes)"
171	167116 34 81 289 1 1.00001162 2 46 62 108 5960
vector 172 XHost_SpineLeaf_Network.leaf[7].H[1].eth[0].mac.queue packetPushed:vector(packetBytes) ETV
attr interpolationmode none
attr title "packet pushed, vector(packetBytes)"
172	167150 34 81 289 1 1.00001162 2 64 64 128 8192
vector 173 XHost_SpineLeaf_Network.leaf[7].H[1].eth[0].mac.queue queueLength:vector ETV
attr interpolationmode sample-hold
attr source "count(packetPushed) - count(packetPopped) - count(packetRemoved) - count(packetDropped)"
attr title "queue length, vector"
173	167184 64 81 289 1 1.00001162 4 0 1 2 2
vector 174 XHost_SpineLeaf_Network.leaf[7].H[1].eth[0].mac.queue packetPopped:vector(packetBytes) ETV
attr interpolationmode none
attr title "packet popped, vector(packetBytes)"
174	167248 34 81 289 1 1.00001162 2 64 64 128 8192
vector 175 XHost_SpineLeaf_Network.leaf[7].H[1].eth[0].mac.queue queueingTime:vector ETV
attr interpolationmode none
attr source queueingTime(packetPopped)
attr title "queueing times, vector"
attr unit s
175	167282 32 81 289 1 1.00001162 2 0 0 0 0
vector 176 XHost_SpineLeaf_Network.leaf[0].H[0].eth[0].mac txPk:vector(packetBytes) ETV
attr interpolationmode none
attr source packetSentToLower
attr title "packets transmitted, vector(packetBytes)"
176	167314 43 82 306 1.00000576 1.00001738 2 64 64 128 8192
vector 177 XHost_SpineLeaf_Network.leaf[0].H[1].eth[0].mac txPk:vector(packetBytes) ETV
attr interpolationmode none
attr source packetSentToLower
attr title "packets transmitted, vector(packetBytes)"
177	167357 43 83 307 1.00000576 1.00001738 2 64 64 128 8192
vector 178 XHost_SpineLeaf_Network.leaf[1].H[0].eth[0].mac txPk:vector(packetBytes) ETV
attr interpolationmode none
attr source packetSentToLower
attr title "packets transmitted, vector(packetBytes)"
178	167400 43 84 308 1.00000576 1.00001738 2 64 64 128 8192
vector 179 XHost_SpineLeaf_Network.leaf[1].H[1].eth[0].mac txPk:vector(packetBytes) ETV
attr interpolationmode none
attr source packetSentToLower
attr title "packets transmitted, vector(packetBytes)"
179	167443 43 85 309 1.00000576 1.00001738 2 64 64 128 8192
vector 180 XHost_SpineLeaf_Network.leaf[2].H[0].eth[0].mac txPk:vector(packetBytes) ETV
attr interpolationmode none
attr source packetSentToLower
attr title "packets transmitted, vector(packetBytes)"
180	167486 43 86 310 1.00000576 1.00001738 2 64 64 128 8192
vector 181 XHost_SpineLeaf_Network.leaf[2].H[1].eth[0].mac txPk:vector(packetBytes) ETV
attr interpolationmode none
attr source packetSentToLower
attr title "packets transmitted, vector(packetBytes)"
181	167529 43 87 311 1.00000576 1.00001738 2 64 64 128 8192
vector 182 XHost_SpineLeaf_Network.leaf[3].H[0].eth[0].mac txPk:vector(packetBytes) ETV
attr interpolationmode none
attr source packetSentToLower
attr title "packets transmitted, vector(packetBytes)"
182	167572 43 88 312 1.00000576 1.00001738 2 64 64 128 8192
vector 183 XHost_SpineLeaf_Network.leaf[3].H[1].eth[0].mac txPk:vector(packetBytes) ETV
attr interpolationmode none
attr source packetSentToLower
attr title "packets transmitted, vector(packetBytes)"
183	167615 43 89 313 1.00000576 1.00001738 2 64 64 128 8192
vector 184 XHost_SpineLeaf_Network.leaf[4].H[0].eth[0].mac txPk:vector(packetBytes) ETV
attr interpolationmode none
attr source packetSentToLower
attr title "packets transmitted, vector(packetBytes)"
184	167658 43 90 314 1.00000576 1.00001738 2 64 64 128 8192
vector 185 XHost_SpineLeaf_Network.leaf[4].H[1].eth[0].mac txPk:vector(packetBytes) ETV
attr interpolationmode none
attr source packetSentToLower
attr title "packets transmitted, vector(packetBytes)"
185	167701 43 91 315 1.00000576 1.00001738 2 64 64 128 8192
vector 186 XHost_SpineLeaf_Network.leaf[5].H[0].eth[0].mac txPk:vector(packetBytes) ETV
attr interpolationmode none
attr source packetSentToLower
attr title "packets transmitted, vector(packetBytes)"
186	167744 43 92 316 1.00000576 1.00001738 2 64 64 128 8192
vector 187 XHost_SpineLeaf_Network.leaf[5].H[1].eth[0].mac txPk:vector(packetBytes) ETV
attr interpolationmode none
attr source packetSentToLower
attr title "packets transmitted, vector(packetBytes)"
187	167787 43 93 317 1.00000576 1.00001738 2 64 64 128 8192
vector 188 XHost_SpineLeaf_Network.leaf[6].H[0].eth[0].mac txPk:vector(packetBytes) ETV
attr interpolationmode none
attr source packetSentToLower
attr title "packets transmitted, vector(packetBytes)"
188	167830 43 94 318 1.00000576 1.00001738 2 64 64 128 8192
vector 189 XHost_SpineLeaf_Network.leaf[6].H[1].eth[0].mac txPk:vector(packetBytes) ETV
attr interpolationmode none
attr source packetSentToLower
attr title "packets transmitted, vector(packetBytes)"
189	167873 43 95 319 1.00000576 1.00001738 2 64 64 128 8192
vector 190 XHost_SpineLeaf_Network.leaf[7].H[0].eth[0].mac txPk:vector(packetBytes) ETV
attr interpolationmode none
attr source packetSentToLower
attr title "packets transmitted, vector(packetBytes)"
190	167916 43 96 320 1.00000576 1.00001738 2 64 64 128 8192
vector 191 XHost_SpineLeaf_Network.leaf[7].H[1].eth[0].mac txPk:vector(packetBytes) ETV
attr interpolationmode none
attr source packetSentToLower
attr title "packets transmitted, vector(packetBytes)"
191	167959 43 97 321 1.00000576 1.00001738 2 64 64 128 8192
vector 192 XHost_SpineLeaf_Network.leaf[0].topOfRack.eth[5].mac rxPkOk:vector(packetBytes) ETV
attr interpolationmode none
attr source rxPkOk
attr title "packets received OK, vector(packetBytes)"
192	168002 43 98 322 1.00000581 1.00001743 2 64 64 128 8192
vector 193 XHost_SpineLeaf_Network.leaf[0].topOfRack.eth[5].mac passedUpPk:vector(packetBytes) ETV
attr interpolationmode none
attr source packetSentToUpper
attr title "packets passed to higher layer, vector(packetBytes)"
193	168045 43 98 322 1.00000581 1.00001743 2 64 64 128 8192
vector 194 XHost_SpineLeaf_Network.leaf[0].topOfRack.eth[6].mac rxPkOk:vector(packetBytes) ETV
attr interpolationmode none
attr source rxPkOk
attr title "packets received OK, vector(packetBytes)"
194	168088 43 99 323 1.00000581 1.00001743 2 64 64 128 8192
vector 195 XHost_SpineLeaf_Network.leaf[0].topOfRack.eth[6].mac passedUpPk:vector(packetBytes) ETV
attr interpolationmode none
attr source packetSentToUpper
attr title "packets passed to higher layer, vector(packetBytes)"
195	168131 43 99 323 1.00000581 1.00001743 2 64 64 128 8192
vector 196 XHost_SpineLeaf_Network.leaf[1].topOfRack.eth[5].mac rxPkOk:vector(packetBytes) ETV
attr interpolationmode none
attr source rxPkOk
attr title "packets received OK, vector(packetBytes)"
196	168174 44 100 324 1.00000581 1.00001743 2 64 64 128 8192
vector 197 XHost_SpineLeaf_Network.leaf[1].topOfRack.eth[5].mac passedUpPk:vector(packetBytes) ETV
attr interpolationmode none
attr source packetSentToUpper
attr title "packets passed to higher layer, vector(packetBytes)"
197	168218 44 100 324 1.00000581 1.00001743 2 64 64 128 8192
vector 198 XHost_SpineLeaf_Network.leaf[1].topOfRack.eth[6].mac rxPkOk:vector(packetBytes) ETV
attr interpolationmode none
attr source rxPkOk
attr title "packets received OK, vector(packetBytes)"
198	168262 44 101 325 1.00000581 1.00001743 2 64 64 128 8192
vector 199 XHost_SpineLeaf_Network.leaf[1].topOfRack.eth[6].mac passedUpPk:vector(packetBytes) ETV
attr interpolationmode none
attr source packetSentToUpper
attr title "packets passed to higher layer, vector(packetBytes)"
199	168306 44 101 325 1.00000581 1.00001743 2 64 64 128 8192
vector 200 XHost_SpineLeaf_Network.leaf[2].topOfRack.eth[5].mac rxPkOk:vector(packetBytes) ETV
attr interpolationmode none
attr source rxPkOk
attr title "packets received OK, vector(packetBytes)"
200	168350 44 102 326 1.00000581 1.00001743 2 64 64 128 8192
vector 201 XHost_SpineLeaf_Network.leaf[2].topOfRack.eth[5].mac passedUpPk:vector(packetBytes) ETV
attr interpolationmode none
attr source packetSentToUpper
attr title "packets passed to higher layer, vector(packetBytes)"
201	168394 44 102 326 1.00000581 1.00001743 2 64 64 128 8192
vector 202 XHost_SpineLeaf_Network.leaf[2].topOfRack.eth[6].mac rxPkOk:vector(packetBytes) ETV
attr interpolationmode none
attr source rxPkOk
attr title "packets received OK, vector(packetBytes)"
202	168438 44 103 327 1.00000581 1.00001743 2 64 64 128 8192
vector 203 XHost_SpineLeaf_Network.leaf[2].topOfRack.eth[6].mac passedUpPk:vector(packetBytes) ETV
attr interpolationmode none
attr source packetSentToUpper
attr title "packets passed to higher layer, vector(packetBytes)"
203	168482 44 103 327 1.00000581 1.00001743 2 64 64 128 8192
vector 204 XHost_SpineLeaf_Network.leaf[3].topOfRack.eth[5].mac rxPkOk:vector(packetBytes) ETV
attr interpolationmode none
attr source rxPkOk
attr title "packets received OK, vector(packetBytes)"
204	168526 44 104 328 1.00000581 1.00001743 2 64 64 128 8192
vector 205 XHost_SpineLeaf_Network.leaf[3].topOfRack.eth[5].mac passedUpPk:vector(packetBytes) ETV
attr interpolationmode none
attr source packetSentToUpper
attr title "packets passed to higher layer, vector(packetBytes)"
205	168570 44 104 328 1.00000581 1.00001743 2 64 64 128 8192
vector 206 XHost_SpineLeaf_Network.leaf[3].topOfRack.eth[6].mac rxPkOk:vector(packetBytes) ETV
attr interpolationmode none
attr source rxPkOk
attr title "packets received OK, vector(packetBytes)"
206	168614 44 105 329 1.00000581 1.00001743 2 64 64 128 8192
vector 207 XHost_SpineLeaf_Network.leaf[3].topOfRack.eth[6].mac passedUpPk:vector(packetBytes) ETV
attr interpolationmode none
attr source packetSentToUpper
attr title "packets passed to higher layer, vector(packetBytes)"
207	168658 44 105 329 1.00000581 1.00001743 2 64 64 128 8192
vector 208 XHost_SpineLeaf_Network.leaf[4].topOfRack.eth[5].mac rxPkOk:vector(packetBytes) ETV
attr interpolationmode none
attr source rxPkOk
attr title "packets received OK, vector(packetBytes)"
208	168702 44 106 330 1.00000581 1.00001743 2 64 64 128 8192
vector 209 XHost_SpineLeaf_Network.leaf[4].topOfRack.eth[5].mac passedUpPk:vector(packetBytes) ETV
attr interpolationmode none
attr source packetSentToUpper
attr title "packets passed to higher layer, vector(packetBytes)"
209	168746 44 106 330 1.00000581 1.00001743 2 64 64 128 8192
vector 210 XHost_SpineLeaf_Network.leaf[4].topOfRack.eth[6].mac rxPkOk:vector(packetBytes) ETV
attr interpolationmode none
attr source rxPkOk
attr title "packets received OK, vector(packetBytes)"
210	168790 44 107 331 1.00000581 1.00001743 2 64 64 128 8192
vector 211 XHost_SpineLeaf_Network.leaf[4].topOfRack.eth[6].mac passedUpPk:vector(packetBytes) ETV
attr interpolationmode none
attr source packetSentToUpper
attr title "packets passed to higher layer, vector(packetBytes)"
211	168834 44 107 331 1.00000581 1.00001743 2 64 64 128 8192
vector 212 XHost_SpineLeaf_Network.leaf[5].topOfRack.eth[5].mac rxPkOk:vector(packetBytes) ETV
attr interpolationmode none
attr source rxPkOk
attr title "packets received OK, vector(packetBytes)"
212	168878 44 108 332 1.00000581 1.00001743 2 64 64 128 8192
vector 213 XHost_SpineLeaf_Network.leaf[5].topOfRack.eth[5].mac passedUpPk:vector(packetBytes) ETV
attr interpolationmode none
attr source packetSentToUpper
attr title "packets passed to higher layer, vector(packetBytes)"
213	168922 44 108 332 1.00000581 1.00001743 2 64 64 128 8192
vector 214 XHost_SpineLeaf_Network.leaf[5].topOfRack.eth[6].mac rxPkOk:vector(packetBytes) ETV
attr interpolationmode none
attr source rxPkOk
attr title "packets received OK, vector(packetBytes)"
214	168966 44 109 333 1.00000581 1.00001743 2 64 64 128 8192
vector 215 XHost_SpineLeaf_Network.leaf[5].topOfRack.eth[6].mac passedUpPk:vector(packetBytes) ETV
attr interpolationmode none
attr source packetSentToUpper
attr title "packets passed to higher layer, vector(packetBytes)"
215	169010 44 109 333 1.00000581 1.00001743 2 64 64 128 8192
vector 216 XHost_SpineLeaf_Network.leaf[6].topOfRack.eth[5].mac rxPkOk:vector(packetBytes) ETV
attr interpolationmode none
attr source rxPkOk
attr title "packets received OK, vector(packetBytes)"
216	169054 44 110 334 1.00000581 1.00001743 2 64 64 128 8192
vector 217 XHost_SpineLeaf_Network.leaf[6].topOfRack.eth[5].mac passedUpPk:vector(packetBytes) ETV
attr interpolationmode none
attr source packetSentToUpper
attr title "packets passed to higher layer, vector(packetBytes)"
217	169098 44 110 334 1.00000581 1.00001743 2 64 64 128 8192
vector 218 XHost_SpineLeaf_Network.leaf[6].topOfRack.eth[6].mac rxPkOk:vector(packetBytes) ETV
attr interpolationmode none
attr source rxPkOk
attr title "packets received OK, vector(packetBytes)"
218	169142 44 111 335 1.00000581 1.00001743 2 64 64 128 8192
vector 219 XHost_SpineLeaf_Network.leaf[6].topOfRack.eth[6].mac passedUpPk:vector(packetBytes) ETV
attr interpolationmode none
attr source packetSentToUpper
attr title "packets passed to higher layer, vector(packetBytes)"
219	169186 44 111 335 1.00000581 1.00001743 2 64 64 128 8192
vector 220 XHost_SpineLeaf_Network.leaf[7].topOfRack.eth[5].mac rxPkOk:vector(packetBytes) ETV
attr interpolationmode none
attr source rxPkOk
attr title "packets received OK, vector(packetBytes)"
220	169230 44 112 336 1.00000581 1.00001743 2 64 64 128 8192
vector 221 XHost_SpineLeaf_Network.leaf[7].topOfRack.eth[5].mac passedUpPk:vector(packetBytes) ETV
attr interpolationmode none
attr source packetSentToUpper
attr title "packets passed to higher layer, vector(packetBytes)"
221	169274 44 112 336 1.00000581 1.00001743 2 64 64 128 8192
vector 222 XHost_SpineLeaf_Network.leaf[7].topOfRack.eth[6].mac rxPkOk:vector(packetBytes) ETV
attr interpolationmode none
attr source rxPkOk
attr title "packets received OK, vector(packetBytes)"
222	169318 44 113 337 1.00000581 1.00001743 2 64 64 128 8192
vector 223 XHost_SpineLeaf_Network.leaf[7].topOfRack.eth[6].mac passedUpPk:vector(packetBytes) ETV
attr interpolationmode none
attr source packetSentToUpper
attr title "packets passed to higher layer, vector(packetBytes)"
223	169362 44 113 337 1.00000581 1.00001743 2 64 64 128 8192
vector 224 XHost_SpineLeaf_Network.leaf[0].topOfRack.eth[5].encap decapPk:vector(packetBytes) ETV
attr interpolationmode none
attr source decapPk
attr title "packets decapsulated, vector(packetBytes)"
224	169406 44 114 338 1.00000581 1.00001743 2 46 46 92 4232
vector 225 XHost_SpineLeaf_Network.leaf[0].topOfRack.eth[6].encap decapPk:vector(packetBytes) ETV
attr interpolationmode none
attr source decapPk
attr title "packets decapsulated, vector(packetBytes)"
225	169450 44 115 339 1.00000581 1.00001743 2 46 46 92 4232
vector 226 XHost_SpineLeaf_Network.leaf[1].topOfRack.eth[5].encap decapPk:vector(packetBytes) ETV
attr interpolationmode none
attr source decapPk
attr title "packets decapsulated, vector(packetBytes)"
226	169494 44 116 340 1.00000581 1.00001743 2 46 46 92 4232
vector 227 XHost_SpineLeaf_Network.leaf[1].topOfRack.eth[6].encap decapPk:vector(packetBytes) ETV
attr interpolationmode none
attr source decapPk
attr title "packets decapsulated, vector(packetBytes)"
227	169538 44 117 341 1.00000581 1.00001743 2 46 46 92 4232
vector 228 XHost_SpineLeaf_Network.leaf[2].topOfRack.eth[5].encap decapPk:vector(packetBytes) ETV
attr interpolationmode none
attr source decapPk
attr title "packets decapsulated, vector(packetBytes)"
228	169582 44 118 342 1.00000581 1.00001743 2 46 46 92 4232
vector 229 XHost_SpineLeaf_Network.leaf[2].topOfRack.eth[6].encap decapPk:vector(packetBytes) ETV
attr interpolationmode none
attr source decapPk
attr title "packets decapsulated, vector(packetBytes)"
229	169626 44 119 343 1.00000581 1.00001743 2 46 46 92 4232
vector 230 XHost_SpineLeaf_Network.leaf[3].topOfRack.eth[5].encap decapPk:vector(packetBytes) ETV
attr interpolationmode none
attr source decapPk
attr title "packets decapsulated, vector(packetBytes)"
230	169670 44 120 344 1.00000581 1.00001743 2 46 46 92 4232
vector 231 XHost_SpineLeaf_Network.leaf[3].topOfRack.eth[6].encap decapPk:vector(packetBytes) ETV
attr interpolationmode none
attr source decapPk
attr title "packets decapsulated, vector(packetBytes)"
231	169714 44 121 345 1.00000581 1.00001743 2 46 46 92 4232
vector 232 XHost_SpineLeaf_Network.leaf[4].topOfRack.eth[5].encap decapPk:vector(packetBytes) ETV
attr interpolationmode none
attr source decapPk
attr title "packets decapsulated, vector(packetBytes)"
232	169758 44 122 346 1.00000581 1.00001743 2 46 46 92 4232
vector 233 XHost_SpineLeaf_Network.leaf[4].topOfRack.eth[6].encap decapPk:vector(packetBytes) ETV
attr interpolationmode none
attr source decapPk
attr title "packets decapsulated, vector(packetBytes)"
233	169802 44 123 347 1.00000581 1.00001743 2 46 46 92 4232
vector 234 XHost_SpineLeaf_Network.leaf[5].topOfRack.eth[5].encap decapPk:vector(packetBytes) ETV
attr interpolationmode none
attr source decapPk
attr title "packets decapsulated, vector(packetBytes)"
234	169846 44 124 348 1.00000581 1.00001743 2 46 46 92 4232
vector 235 XHost_SpineLeaf_Network.leaf[5].topOfRack.eth[6].encap decapPk:vector(packetBytes) ETV
attr interpolationmode none
attr source decapPk
attr title "packets decapsulated, vector(packetBytes)"
235	169890 44 125 349 1.00000581 1.00001743 2 46 46 92 4232
vector 236 XHost_SpineLeaf_Network.leaf[6].topOfRack.eth[5].encap decapPk:vector(packetBytes) ETV
attr interpolationmode none
attr source decapPk
attr title "packets decapsulated, vector(packetBytes)"
236	169934 44 126 350 1.00000581 1.00001743 2 46 46 92 4232
vector 237 XHost_SpineLeaf_Network.leaf[6].topOfRack.eth[6].encap decapPk:vector(packetBytes) ETV
attr interpolationmode none
attr source decapPk
attr title "packets decapsulated, vector(packetBytes)"
237	169978 44 127 351 1.00000581 1.00001743 2 46 46 92 4232
vector 238 XHost_SpineLeaf_Network.leaf[7].topOfRack.eth[5].encap decapPk:vector(packetBytes) ETV
attr interpolationmode none
attr source decapPk
attr title "packets decapsulated, vector(packetBytes)"
238	170022 44 128 352 1.00000581 1.00001743 2 46 46 92 4232
vector 239 XHost_SpineLeaf_Network.leaf[7].topOfRack.eth[6].encap decapPk:vector(packetBytes) ETV
attr interpolationmode none
attr source decapPk
attr title "packets decapsulated, vector(packetBytes)"
239	170066 44 129 353 1.00000581 1.00001743 2 46 46 92 4232
vector 240 XHost_SpineLeaf_Network.leaf[0].topOfRack.ipv4.arp arpReplySent:vector(packetBytes) ETV
attr source arpReplySent
attr title "ARP replies sent, vector(packetBytes)"
240	170110 44 130 131 1.00000581 1.00000581 2 28 28 56 1568
vector 241 XHost_SpineLeaf_Network.leaf[1].topOfRack.ipv4.arp arpReplySent:vector(packetBytes) ETV
attr source arpReplySent
attr title "ARP replies sent, vector(packetBytes)"
241	170154 44 132 133 1.00000581 1.00000581 2 28 28 56 1568
vector 242 XHost_SpineLeaf_Network.leaf[2].topOfRack.ipv4.arp arpReplySent:vector(packetBytes) ETV
attr source arpReplySent
attr title "ARP replies sent, vector(packetBytes)"
242	170198 44 134 135 1.00000581 1.00000581 2 28 28 56 1568
vector 243 XHost_SpineLeaf_Network.leaf[3].topOfRack.ipv4.arp arpReplySent:vector(packetBytes) ETV
attr source arpReplySent
attr title "ARP replies sent, vector(packetBytes)"
243	170242 44 136 137 1.00000581 1.00000581 2 28 28 56 1568
vector 244 XHost_SpineLeaf_Network.leaf[4].topOfRack.ipv4.arp arpReplySent:vector(packetBytes) ETV
attr source arpReplySent
attr title "ARP replies sent, vector(packetBytes)"
244	170286 44 138 139 1.00000581 1.00000581 2 28 28 56 1568
vector 245 XHost_SpineLeaf_Network.leaf[5].topOfRack.ipv4.arp arpReplySent:vector(packetBytes) ETV
attr source arpReplySent
attr title "ARP replies sent, vector(packetBytes)"
245	170330 44 140 141 1.00000581 1.00000581 2 28 28 56 1568
vector 246 XHost_SpineLeaf_Network.leaf[6].topOfRack.ipv4.arp arpReplySent:vector(packetBytes) ETV
attr source arpReplySent
attr title "ARP replies sent, vector(packetBytes)"
246	170374 44 142 143 1.00000581 1.00000581 2 28 28 56 1568
vector 247 XHost_SpineLeaf_Network.leaf[7].topOfRack.ipv4.arp arpReplySent:vector(packetBytes) ETV
attr source arpReplySent
attr title "ARP replies sent, vector(packetBytes)"
247	170418 44 144 145 1.00000581 1.00000581 2 28 28 56 1568
vector 248 XHost_SpineLeaf_Network.leaf[0].topOfRack.eth[5].encap encapPk:vector(packetBytes) ETV
attr interpolationmode none
attr source encapPk
attr title "packets encapsulated, vector(packetBytes)"
248	170462 22 146 146 1.00000581 1.00000581 1 28 28 28 784
vector 249 XHost_SpineLeaf_Network.leaf[0].topOfRack.eth[6].encap encapPk:vector(packetBytes) ETV
attr interpolationmode none
attr source encapPk
attr title "packets encapsulated, vector(packetBytes)"
249	170484 22 147 147 1.00000581 1.00000581 1 28 28 28 784
vector 250 XHost_SpineLeaf_Network.leaf[1].topOfRack.eth[5].encap encapPk:vector(packetBytes) ETV
attr interpolationmode none
attr source encapPk
attr title "packets encapsulated, vector(packetBytes)"
250	170506 22 148 148 1.00000581 1.00000581 1 28 28 28 784
vector 251 XHost_SpineLeaf_Network.leaf[1].topOfRack.eth[6].encap encapPk:vector(packetBytes) ETV
attr interpolationmode none
attr source encapPk
attr title "packets encapsulated, vector(packetBytes)"
251	170528 22 149 149 1.00000581 1.00000581 1 28 28 28 784
vector 252 XHost_SpineLeaf_Network.leaf[2].topOfRack.eth[5].encap encapPk:vector(packetBytes) ETV
attr interpolationmode none
attr source encapPk
attr title "packets encapsulated, vector(packetBytes)"
252	170550 22 150 150 1.00000581 1.00000581 1 28 28 28 784
vector 253 XHost_SpineLeaf_Network.leaf[2].topOfRack.eth[6].encap encapPk:vector(packetBytes) ETV
attr interpolationmode none
attr source encapPk
attr title "packets encapsulated, vector(packetBytes)"
253	170572 22 151 151 1.00000581 1.00000581 1 28 28 28 784
vector 254 XHost_SpineLeaf_Network.leaf[3].topOfRack.eth[5].encap encapPk:vector(packetBytes) ETV
attr interpolationmode none
attr source encapPk
attr title "packets encapsulated, vector(packetBytes)"
254	170594 22 152 152 1.00000581 1.00000581 1 28 28 28 784
vector 255 XHost_SpineLeaf_Network.leaf[3].topOfRack.eth[6].encap encapPk:vector(packetBytes) ETV
attr interpolationmode none
attr source encapPk
attr title "packets encapsulated, vector(packetBytes)"
255	170616 22 153 153 1.00000581 1.00000581 1 28 28 28 784
vector 256 XHost_SpineLeaf_Network.leaf[4].topOfRack.eth[5].encap encapPk:vector(packetBytes) ETV
attr interpolationmode none
attr source encapPk
attr title "packets encapsulated, vector(packetBytes)"
256	170638 22 154 154 1.00000581 1.00000581 1 28 28 28 784
vector 257 XHost_SpineLeaf_Network.leaf[4].topOfRack.eth[6].encap encapPk:vector(packetBytes) ETV
attr interpolationmode none
attr source encapPk
attr title "packets encapsulated, vector(packetBytes)"
257	170660 22 155 155 1.00000581 1.00000581 1 28 28 28 784
vector 258 XHost_SpineLeaf_Network.leaf[5].topOfRack.eth[5].encap encapPk:vector(packetBytes) ETV
attr interpolationmode none
attr source encapPk
attr title "packets encapsulated, vector(packetBytes)"
258	170682 22 156 156 1.00000581 1.00000581 1 28 28 28 784
vector 259 XHost_SpineLeaf_Network.leaf[5].topOfRack.eth[6].encap encapPk:vector(packetBytes) ETV
attr interpolationmode none
attr source encapPk
attr title "packets encapsulated, vector(packetBytes)"
259	170704 22 157 157 1.00000581 1.00000581 1 28 28 28 784
vector 260 XHost_SpineLeaf_Network.leaf[6].topOfRack.eth[5].encap encapPk:vector(packetBytes) ETV
attr interpolationmode none
attr source encapPk
attr title "packets encapsulated, vector(packetBytes)"
260	170726 22 158 158 1.00000581 1.00000581 1 28 28 28 784
vector 261 XHost_SpineLeaf_Network.leaf[6].topOfRack.eth[6].encap encapPk:vector(packetBytes) ETV
attr interpolationmode none
attr source encapPk
attr title "packets encapsulated, vector(packetBytes)"
261	170748 22 159 159 1.00000581 1.00000581 1 28 28 28 784
vector 262 XHost_SpineLeaf_Network.leaf[7].topOfRack.eth[5].encap encapPk:vector(packetBytes) ETV
attr interpolationmode none
attr source encapPk
attr title "packets encapsulated, vector(packetBytes)"
262	170770 22 160 160 1.00000581 1.00000581 1 28 28 28 784
vector 263 XHost_SpineLeaf_Network.leaf[7].topOfRack.eth[6].encap encapPk:vector(packetBytes) ETV
attr interpolationmode none
attr source encapPk
attr title "packets encapsulated, vector(packetBytes)"
263	170792 22 161 161 1.00000581 1.00000581 1 28 28 28 784
vector 264 XHost_SpineLeaf_Network.leaf[0].topOfRack.eth[5].mac packetReceivedFromUpper:vector(packetBytes) ETV
attr interpolationmode none
attr source packetReceivedFromUpper
attr title "packet bytes from higher layer, vector(packetBytes)"
264	170814 22 162 162 1.00000581 1.00000581 1 46 46 46 2116
vector 265 XHost_SpineLeaf_Network.leaf[0].topOfRack.eth[5].mac.queue packetPushed:vector(packetBytes) ETV
attr interpolationmode none
attr title "packet pushed, vector(packetBytes)"
265	170836 22 162 162 1.00000581 1.00000581 1 64 64 64 4096
vector 266 XHost_SpineLeaf_Network.leaf[0].topOfRack.eth[5].mac.queue queueLength:vector ETV
attr interpolationmode sample-hold
attr source "count(packetPushed) - count(packetPopped) - count(packetRemoved) - count(packetDropped)"
attr title "queue length, vector"
266	170858 42 162 162 1.00000581 1.00000581 2 0 1 1 1
vector 267 XHost_SpineLeaf_Network.leaf[0].topOfRack.eth[5].mac.queue packetPopped:vector(packetBytes) ETV
attr interpolationmode none
attr title "packet popped, vector(packetBytes)"
267	170900 22 162 162 1.00000581 1.00000581 1 64 64 64 4096
vector 268 XHost_SpineLeaf_Network.leaf[0].topOfRack.eth[5].mac.queue queueingTime:vector ETV
attr interpolationmode none
attr source queueingTime(packetPopped)
attr title "queueing times, vector"
attr unit s
268	170922 21 162 162 1.00000581 1.00000581 1 0 0 0 0
vector 269 XHost_SpineLeaf_Network.leaf[0].topOfRack.eth[6].mac packetReceivedFromUpper:vector(packetBytes) ETV
attr interpolationmode none
attr source packetReceivedFromUpper
attr title "packet bytes from higher layer, vector(packetBytes)"
269	170943 22 163 163 1.00000581 1.00000581 1 46 46 46 2116
vector 270 XHost_SpineLeaf_Network.leaf[0].topOfRack.eth[6].mac.queue packetPushed:vector(packetBytes) ETV
attr interpolationmode none
attr title "packet pushed, vector(packetBytes)"
270	170965 22 163 163 1.00000581 1.00000581 1 64 64 64 4096
vector 271 XHost_SpineLeaf_Network.leaf[0].topOfRack.eth[6].mac.queue queueLength:vector ETV
attr interpolationmode sample-hold
attr source "count(packetPushed) - count(packetPopped) - count(packetRemoved) - count(packetDropped)"
attr title "queue length, vector"
271	170987 42 163 163 1.00000581 1.00000581 2 0 1 1 1
vector 272 XHost_SpineLeaf_Network.leaf[0].topOfRack.eth[6].mac.queue packetPopped:vector(packetBytes) ETV
attr interpolationmode none
attr title "packet popped, vector(packetBytes)"
272	171029 22 163 163 1.00000581 1.00000581 1 64 64 64 4096
vector 273 XHost_SpineLeaf_Network.leaf[0].topOfRack.eth[6].mac.queue queueingTime:vector ETV
attr interpolationmode none
attr source queueingTime(packetPopped)
attr title "queueing times, vector"
attr unit s
273	171051 21 163 163 1.00000581 1.00000581 1 0 0 0 0
vector 274 XHost_SpineLeaf_Network.leaf[1].topOfRack.eth[5].mac packetReceivedFromUpper:vector(packetBytes) ETV
attr interpolationmode none
attr source packetReceivedFromUpper
attr title "packet bytes from higher layer, vector(packetBytes)"
274	171072 22 164 164 1.00000581 1.00000581 1 46 46 46 2116
vector 275 XHost_SpineLeaf_Network.leaf[1].topOfRack.eth[5].mac.queue packetPushed:vector(packetBytes) ETV
attr interpolationmode none
attr title "packet pushed, vector(packetBytes)"
275	171094 22 164 164 1.00000581 1.00000581 1 64 64 64 4096
vector 276 XHost_SpineLeaf_Network.leaf[1].topOfRack.eth[5].mac.queue queueLength:vector ETV
attr interpolationmode sample-hold
attr source "count(packetPushed) - count(packetPopped) - count(packetRemoved) - count(packetDropped)"
attr title "queue length, vector"
276	171116 42 164 164 1.00000581 1.00000581 2 0 1 1 1
vector 277 XHost_SpineLeaf_Network.leaf[1].topOfRack.eth[5].mac.queue packetPopped:vector(packetBytes) ETV
attr interpolationmode none
attr title "packet popped, vector(packetBytes)"
277	171158 22 164 164 1.00000581 1.00000581 1 64 64 64 4096
vector 278 XHost_SpineLeaf_Network.leaf[1].topOfRack.eth[5].mac.queue queueingTime:vector ETV
attr interpolationmode none
attr source queueingTime(packetPopped)
attr title "queueing times, vector"
attr unit s
278	171180 21 164 164 1.00000581 1.00000581 1 0 0 0 0
vector 279 XHost_SpineLeaf_Network.leaf[1].topOfRack.eth[6].mac packetReceivedFromUpper:vector(packetBytes) ETV
attr interpolationmode none
attr source packetReceivedFromUpper
attr title "packet bytes from higher layer, vector(packetBytes)"
279	171201 22 165 165 1.00000581 1.00000581 1 46 46 46 2116
vector 280 XHost_SpineLeaf_Network.leaf[1].topOfRack.eth[6].mac.queue packetPushed:vector(packetBytes) ETV
attr interpolationmode none
attr title "packet pushed, vector(packetBytes)"
280	171223 22 165 165 1.00000581 1.00000581 1 64 64 64 4096
vector 281 XHost_SpineLeaf_Network.leaf[1].topOfRack.eth[6].mac.queue queueLength:vector ETV
attr interpolationmode sample-hold
attr source "count(packetPushed) - count(packetPopped) - count(packetRemoved) - count(packetDropped)"
attr title "queue length, vector"
281	171245 42 165 165 1.00000581 1.00000581 2 0 1 1 1
vector 282 XHost_SpineLeaf_Network.leaf[1].topOfRack.eth[6].mac.queue packetPopped:vector(packetBytes) ETV
attr interpolationmode none
attr title "packet popped, vector(packetBytes)"
282	171287 22 165 165 1.00000581 1.00000581 1 64 64 64 4096
vector 283 XHost_SpineLeaf_Network.leaf[1].topOfRack.eth[6].mac.queue queueingTime:vector ETV
attr interpolationmode none
attr source queueingTime(packetPopped)
attr title "queueing times, vector"
attr unit s
283	171309 21 165 165 1.00000581 1.00000581 1 0 0 0 0
vector 284 XHost_SpineLeaf_Network.leaf[2].topOfRack.eth[5].mac packetReceivedFromUpper:vector(packetBytes) ETV
attr interpolationmode none
attr source packetReceivedFromUpper
attr title "packet bytes from higher layer, vector(packetBytes)"
284	171330 22 166 166 1.00000581 1.00000581 1 46 46 46 2116
vector 285 XHost_SpineLeaf_Network.leaf[2].topOfRack.eth[5].mac.queue packetPushed:vector(packetBytes) ETV
attr interpolationmode none
attr title "packet pushed, vector(packetBytes)"
285	171352 22 166 166 1.00000581 1.00000581 1 64 64 64 4096
vector 286 XHost_SpineLeaf_Network.leaf[2].topOfRack.eth[5].mac.queue queueLength:vector ETV
attr interpolationmode sample-hold
attr source "count(packetPushed) - count(packetPopped) - count(packetRemoved) - count(packetDropped)"
attr title "queue length, vector"
286	171374 42 166 166 1.00000581 1.00000581 2 0 1 1 1
vector 287 XHost_SpineLeaf_Network.leaf[2].topOfRack.eth[5].mac.queue packetPopped:vector(packetBytes) ETV
attr interpolationmode none
attr title "packet popped, vector(packetBytes)"
287	171416 22 166 166 1.00000581 1.00000581 1 64 64 64 4096
vector 288 XHost_SpineLeaf_Network.leaf[2].topOfRack.eth[5].mac.queue queueingTime:vector ETV
attr interpolationmode none
attr source queueingTime(packetPopped)
attr title "queueing times, vector"
attr unit s
288	171438 21 166 166 1.00000581 1.00000581 1 0 0 0 0
vector 289 XHost_SpineLeaf_Network.leaf[2].topOfRack.eth[6].mac packetReceivedFromUpper:vector(packetBytes) ETV
attr interpolationmode none
attr source packetReceivedFromUpper
attr title "packet bytes from higher layer, vector(packetBytes)"
289	171459 22 167 167 1.00000581 1.00000581 1 46 46 46 2116
vector 290 XHost_SpineLeaf_Network.leaf[2].topOfRack.eth[6].mac.queue packetPushed:vector(packetBytes) ETV
attr interpolationmode none
attr title "packet pushed, vector(packetBytes)"
290	171481 22 167 167 1.00000581 1.00000581 1 64 64 64 4096
vector 291 XHost_SpineLeaf_Network.leaf[2].topOfRack.eth[6].mac.queue queueLength:vector ETV
attr interpolationmode sample-hold
attr source "count(packetPushed) - count(packetPopped) - count(packetRemoved) - count(packetDropped)"
attr title "queue length, vector"
291	171503 42 167 167 1.00000581 1.00000581 2 0 1 1 1
vector 292 XHost_SpineLeaf_Network.leaf[2].topOfRack.eth[6].mac.queue packetPopped:vector(packetBytes) ETV
attr interpolationmode none
attr title "packet popped, vector(packetBytes)"
292	171545 22 167 167 1.00000581 1.00000581 1 64 64 64 4096
vector 293 XHost_SpineLeaf_Network.leaf[2].topOfRack.eth[6].mac.queue queueingTime:vector ETV
attr interpolationmode none
attr source queueingTime(packetPopped)
attr title "queueing times, vector"
attr unit s
293	171567 21 167 167 1.00000581 1.00000581 1 0 0 0 0
vector 294 XHost_SpineLeaf_Network.leaf[3].topOfRack.eth[5].mac packetReceivedFromUpper:vector(packetBytes) ETV
attr interpolationmode none
attr source packetReceivedFromUpper
attr title "packet bytes from higher layer, vector(packetBytes)"
294	171588 22 168 168 1.00000581 1.00000581 1 46 46 46 2116
vector 295 XHost_SpineLeaf_Network.leaf[3].topOfRack.eth[5].mac.queue packetPushed:vector(packetBytes) ETV
attr interpolationmode none
attr title "packet pushed, vector(packetBytes)"
295	171610 22 168 168 1.00000581 1.00000581 1 64 64 64 4096
vector 296 XHost_SpineLeaf_Network.leaf[3].topOfRack.eth[5].mac.queue queueLength:vector ETV
attr interpolationmode sample-hold
attr source "count(packetPushed) - count(packetPopped) - count(packetRemoved) - count(packetDropped)"
attr title "queue length, vector"
296	171632 42 168 168 1.00000581 1.00000581 2 0 1 1 1
vector 297 XHost_SpineLeaf_Network.leaf[3].topOfRack.eth[5].mac.queue packetPopped:vector(packetBytes) ETV
attr interpolationmode none
attr title "packet popped, vector(packetBytes)"
297	171674 22 168 168 1.00000581 1.00000581 1 64 64 64 4096
vector 298 XHost_SpineLeaf_Network.leaf[3].topOfRack.eth[5].mac.queue queueingTime:vector ETV
attr interpolationmode none
attr source queueingTime(packetPopped)
attr title "queueing times, vector"
attr unit s
298	171696 21 168 168 1.00000581 1.00000581 1 0 0 0 0
vector 299 XHost_SpineLeaf_Network.leaf[3].topOfRack.eth[6].mac packetReceivedFromUpper:vector(packetBytes) ETV
attr interpolationmode none
attr source packetReceivedFromUpper
attr title "packet bytes from higher layer, vector(packetBytes)"
299	171717 22 169 169 1.00000581 1.00000581 1 46 46 46 2116
vector 300 XHost_SpineLeaf_Network.leaf[3].topOfRack.eth[6].mac.queue packetPushed:vector(packetBytes) ETV
attr interpolationmode none
attr title "packet pushed, vector(packetBytes)"
300	171739 22 169 169 1.00000581 1.00000581 1 64 64 64 4096
vector 301 XHost_SpineLeaf_Network.leaf[3].topOfRack.eth[6].mac.queue queueLength:vector ETV
attr interpolationmode sample-hold
attr source "count(packetPushed) - count(packetPopped) - count(packetRemoved) - count(packetDropped)"
attr title "queue length, vector"
301	171761 42 169 169 1.00000581 1.00000581 2 0 1 1 1
vector 302 XHost_SpineLeaf_Network.leaf[3].topOfRack.eth[6].mac.queue packetPopped:vector(packetBytes) ETV
attr interpolationmode none
attr title "packet popped, vector(packetBytes)"
302	171803 22 169 169 1.00000581 1.00000581 1 64 64 64 4096
vector 303 XHost_SpineLeaf_Network.leaf[3].topOfRack.eth[6].mac.queue queueingTime:vector ETV
attr interpolationmode none
attr source queueingTime(packetPopped)
attr title "queueing times, vector"
attr unit s
303	171825 21 169 169 1.00000581 1.00000581 1 0 0 0 0
vector 304 XHost_SpineLeaf_Network.leaf[4].topOfRack.eth[5].mac packetReceivedFromUpper:vector(packetBytes) ETV
attr interpolationmode none
attr source packetReceivedFromUpper
attr title "packet bytes from higher layer, vector(packetBytes)"
304	171846 22 170 170 1.00000581 1.00000581 1 46 46 46 2116
vector 305 XHost_SpineLeaf_Network.leaf[4].topOfRack.eth[5].mac.queue packetPushed:vector(packetBytes) ETV
attr interpolationmode none
attr title "packet pushed, vector(packetBytes)"
305	171868 22 170 170 1.00000581 1.00000581 1 64 64 64 4096
vector 306 XHost_SpineLeaf_Network.leaf[4].topOfRack.eth[5].mac.queue queueLength:vector ETV
attr interpolationmode sample-hold
attr source "count(packetPushed) - count(packetPopped) - count(packetRemoved) - count(packetDropped)"
attr title "queue length, vector"
306	171890 42 170 170 1.00000581 1.00000581 2 0 1 1 1
vector 307 XHost_SpineLeaf_Network.leaf[4].topOfRack.eth[5].mac.queue packetPopped:vector(packetBytes) ETV
attr interpolationmode none
attr title "packet popped, vector(packetBytes)"
307	171932 22 170 170 1.00000581 1.00000581 1 64 64 64 4096
vector 308 XHost_SpineLeaf_Network.leaf[4].topOfRack.eth[5].mac.queue queueingTime:vector ETV
attr interpolationmode none
attr source queueingTime(packetPopped)
attr title "queueing times, vector"
attr unit s
308	171954 21 170 170 1.00000581 1.00000581 1 0 0 0 0
vector 309 XHost_SpineLeaf_Network.leaf[4].topOfRack.eth[6].mac packetReceivedFromUpper:vector(packetBytes) ETV
attr interpolationmode none
attr source packetReceivedFromUpper
attr title "packet bytes from higher layer, vector(packetBytes)"
309	171975 22 171 171 1.00000581 1.00000581 1 46 46 46 2116
vector 310 XHost_SpineLeaf_Network.leaf[4].topOfRack.eth[6].mac.queue packetPushed:vector(packetBytes) ETV
attr interpolationmode none
attr title "packet pushed, vector(packetBytes)"
310	171997 22 171 171 1.00000581 1.00000581 1 64 64 64 4096
vector 311 XHost_SpineLeaf_Network.leaf[4].topOfRack.eth[6].mac.queue queueLength:vector ETV
attr interpolationmode sample-hold
attr source "count(packetPushed) - count(packetPopped) - count(packetRemoved) - count(packetDropped)"
attr title "queue length, vector"
311	172019 42 171 171 1.00000581 1.00000581 2 0 1 1 1
vector 312 XHost_SpineLeaf_Network.leaf[4].topOfRack.eth[6].mac.queue packetPopped:vector(packetBytes) ETV
attr interpolationmode none
attr title "packet popped, vector(packetBytes)"
312	172061 22 171 171 1.00000581 1.00000581 1 64 64 64 4096
vector 313 XHost_SpineLeaf_Network.leaf[4].topOfRack.eth[6].mac.queue queueingTime:vector ETV
attr interpolationmode none
attr source queueingTime(packetPopped)
attr title "queueing times, vector"
attr unit s
313	172083 21 171 171 1.00000581 1.00000581 1 0 0 0 0
vector 314 XHost_SpineLeaf_Network.leaf[5].topOfRack.eth[5].mac packetReceivedFromUpper:vector(packetBytes) ETV
attr interpolationmode none
attr source packetReceivedFromUpper
attr title "packet bytes from higher layer, vector(packetBytes)"
314	172104 22 172 172 1.00000581 1.00000581 1 46 46 46 2116
vector 315 XHost_SpineLeaf_Network.leaf[5].topOfRack.eth[5].mac.queue packetPushed:vector(packetBytes) ETV
attr interpolationmode none
attr title "packet pushed, vector(packetBytes)"
315	172126 22 172 172 1.00000581 1.00000581 1 64 64 64 4096
vector 316 XHost_SpineLeaf_Network.leaf[5].topOfRack.eth[5].mac.queue queueLength:vector ETV
attr interpolationmode sample-hold
attr source "count(packetPushed) - count(packetPopped) - count(packetRemoved) - count(packetDropped)"
attr title "queue length, vector"
316	172148 42 172 172 1.00000581 1.00000581 2 0 1 1 1
vector 317 XHost_SpineLeaf_Network.leaf[5].topOfRack.eth[5].mac.queue packetPopped:vector(packetBytes) ETV
attr interpolationmode none
attr title "packet popped, vector(packetBytes)"
317	172190 22 172 172 1.00000581 1.00000581 1 64 64 64 4096
vector 318 XHost_SpineLeaf_Network.leaf[5].topOfRack.eth[5].mac.queue queueingTime:vector ETV
attr interpolationmode none
attr source queueingTime(packetPopped)
attr title "queueing times, vector"
attr unit s
318	172212 21 172 172 1.00000581 1.00000581 1 0 0 0 0
vector 319 XHost_SpineLeaf_Network.leaf[5].topOfRack.eth[6].mac packetReceivedFromUpper:vector(packetBytes) ETV
attr interpolationmode none
attr source packetReceivedFromUpper
attr title "packet bytes from higher layer, vector(packetBytes)"
319	172233 22 173 173 1.00000581 1.00000581 1 46 46 46 2116
vector 320 XHost_SpineLeaf_Network.leaf[5].topOfRack.eth[6].mac.queue packetPushed:vector(packetBytes) ETV
attr interpolationmode none
attr title "packet pushed, vector(packetBytes)"
320	172255 22 173 173 1.00000581 1.00000581 1 64 64 64 4096
vector 321 XHost_SpineLeaf_Network.leaf[5].topOfRack.eth[6].mac.queue queueLength:vector ETV
attr interpolationmode sample-hold
attr source "count(packetPushed) - count(packetPopped) - count(packetRemoved) - count(packetDropped)"
attr title "queue length, vector"
321	172277 42 173 173 1.00000581 1.00000581 2 0 1 1 1
vector 322 XHost_SpineLeaf_Network.leaf[5].topOfRack.eth[6].mac.queue packetPopped:vector(packetBytes) ETV
attr interpolationmode none
attr title "packet popped, vector(packetBytes)"
322	172319 22 173 173 1.00000581 1.00000581 1 64 64 64 4096
vector 323 XHost_SpineLeaf_Network.leaf[5].topOfRack.eth[6].mac.queue queueingTime:vector ETV
attr interpolationmode none
attr source queueingTime(packetPopped)
attr title "queueing times, vector"
attr unit s
323	172341 21 173 173 1.00000581 1.00000581 1 0 0 0 0
vector 324 XHost_SpineLeaf_Network.leaf[6].topOfRack.eth[5].mac packetReceivedFromUpper:vector(packetBytes) ETV
attr interpolationmode none
attr source packetReceivedFromUpper
attr title "packet bytes from higher layer, vector(packetBytes)"
324	172362 22 174 174 1.00000581 1.00000581 1 46 46 46 2116
vector 325 XHost_SpineLeaf_Network.leaf[6].topOfRack.eth[5].mac.queue packetPushed:vector(packetBytes) ETV
attr interpolationmode none
attr title "packet pushed, vector(packetBytes)"
325	172384 22 174 174 1.00000581 1.00000581 1 64 64 64 4096
vector 326 XHost_SpineLeaf_Network.leaf[6].topOfRack.eth[5].mac.queue queueLength:vector ETV
attr interpolationmode sample-hold
[...]
attr title "queue length, vector"
738	188066 293 665 798 1.00003486 1.0000532 14 0 2 15 23
vector 739 XHost_SpineLeaf_Network.spine[4].eth[0].mac.queue packetPopped:vector(packetBytes) ETV
attr interpolationmode none
attr title "packet popped, vector(packetBytes)"
739	188359 65 665 798 1.00003486 1.0000532 3 64 64 192 12288
vector 740 XHost_SpineLeaf_Network.spine[4].eth[0].mac.queue queueingTime:vector ETV
attr interpolationmode none
attr source queueingTime(packetPopped)
attr title "queueing times, vector"
attr unit s
740	188424 70 665 798 1.00003486 1.0000532 3 0 6.72e-006 6.72e-006 4.51584e-011
vector 741 XHost_SpineLeaf_Network.spine[0].eth[0].mac txPk:vector(packetBytes) ETV
attr interpolationmode none
attr source packetSentToLower
attr title "packets transmitted, vector(packetBytes)"
741	188494 66 674 805 1.00004062 1.00005896 3 64 64 192 12288
vector 742 XHost_SpineLeaf_Network.spine[2].eth[0].mac txPk:vector(packetBytes) ETV
attr interpolationmode none
attr source packetSentToLower
attr title "packets transmitted, vector(packetBytes)"
742	188560 66 675 806 1.00004062 1.00005896 3 64 64 192 12288
vector 743 XHost_SpineLeaf_Network.spine[4].eth[0].mac txPk:vector(packetBytes) ETV
attr interpolationmode none
attr source packetSentToLower
attr title "packets transmitted, vector(packetBytes)"
743	188626 66 676 807 1.00004062 1.00005896 3 64 64 192 12288
vector 744 XHost_SpineLeaf_Network.borderLeaf.eth[0].mac rxPkOk:vector(packetBytes) ETV
attr interpolationmode none
attr source rxPkOk
attr title "packets received OK, vector(packetBytes)"
744	188692 66 677 808 1.00004067 1.00005901 3 64 64 192 12288
vector 745 XHost_SpineLeaf_Network.borderLeaf.eth[0].mac passedUpPk:vector(packetBytes) ETV
attr interpolationmode none
attr source packetSentToUpper
attr title "packets passed to higher layer, vector(packetBytes)"
745	188758 66 677 808 1.00004067 1.00005901 3 64 64 192 12288
vector 746 XHost_SpineLeaf_Network.borderLeaf.eth[2].mac rxPkOk:vector(packetBytes) ETV
attr interpolationmode none
attr source rxPkOk
attr title "packets received OK, vector(packetBytes)"
746	188824 66 678 809 1.00004067 1.00005901 3 64 64 192 12288
vector 747 XHost_SpineLeaf_Network.borderLeaf.eth[2].mac passedUpPk:vector(packetBytes) ETV
attr interpolationmode none
attr source packetSentToUpper
attr title "packets passed to higher layer, vector(packetBytes)"
747	188890 66 678 809 1.00004067 1.00005901 3 64 64 192 12288
vector 748 XHost_SpineLeaf_Network.borderLeaf.eth[4].mac rxPkOk:vector(packetBytes) ETV
attr interpolationmode none
attr source rxPkOk
attr title "packets received OK, vector(packetBytes)"
748	188956 66 679 810 1.00004067 1.00005901 3 64 64 192 12288
vector 749 XHost_SpineLeaf_Network.borderLeaf.eth[4].mac passedUpPk:vector(packetBytes) ETV
attr interpolationmode none
attr source packetSentToUpper
attr title "packets passed to higher layer, vector(packetBytes)"
749	189022 66 679 810 1.00004067 1.00005901 3 64 64 192 12288
vector 750 XHost_SpineLeaf_Network.borderLeaf.eth[0].encap decapPk:vector(packetBytes) ETV
attr interpolationmode none
attr source decapPk
attr title "packets decapsulated, vector(packetBytes)"
750	189088 66 680 812 1.00004067 1.00005901 3 46 46 138 6348
vector 751 XHost_SpineLeaf_Network.borderLeaf.eth[2].encap decapPk:vector(packetBytes) ETV
attr interpolationmode none
attr source decapPk
attr title "packets decapsulated, vector(packetBytes)"
751	189154 66 681 813 1.00004067 1.00005901 3 46 46 138 6348
vector 752 XHost_SpineLeaf_Network.borderLeaf.eth[4].encap decapPk:vector(packetBytes) ETV
attr interpolationmode none
attr source decapPk
attr title "packets decapsulated, vector(packetBytes)"
752	189220 66 682 814 1.00004067 1.00005901 3 46 46 138 6348
vector 753 XHost_SpineLeaf_Network.borderLeaf.ipv4.arp arpReplySent:vector(packetBytes) ETV
attr source arpReplySent
attr title "ARP replies sent, vector(packetBytes)"
753	189286 66 683 685 1.00004067 1.00004067 3 28 28 84 2352
vector 754 XHost_SpineLeaf_Network.borderLeaf.eth[0].encap encapPk:vector(packetBytes) ETV
attr interpolationmode none
attr source encapPk
attr title "packets encapsulated, vector(packetBytes)"
754	189352 22 686 686 1.00004067 1.00004067 1 28 28 28 784
vector 755 XHost_SpineLeaf_Network.borderLeaf.eth[2].encap encapPk:vector(packetBytes) ETV
attr interpolationmode none
attr source encapPk
attr title "packets encapsulated, vector(packetBytes)"
755	189374 22 687 687 1.00004067 1.00004067 1 28 28 28 784
vector 756 XHost_SpineLeaf_Network.borderLeaf.eth[4].encap encapPk:vector(packetBytes) ETV
attr interpolationmode none
attr source encapPk
attr title "packets encapsulated, vector(packetBytes)"
756	189396 22 688 688 1.00004067 1.00004067 1 28 28 28 784
vector 757 XHost_SpineLeaf_Network.borderLeaf.eth[0].mac packetReceivedFromUpper:vector(packetBytes) ETV
attr interpolationmode none
attr source packetReceivedFromUpper
attr title "packet bytes from higher layer, vector(packetBytes)"
757	189418 22 689 689 1.00004067 1.00004067 1 46 46 46 2116
vector 758 XHost_SpineLeaf_Network.borderLeaf.eth[0].mac.queue packetPushed:vector(packetBytes) ETV
attr interpolationmode none
attr title "packet pushed, vector(packetBytes)"
758	189440 22 689 689 1.00004067 1.00004067 1 64 64 64 4096
vector 759 XHost_SpineLeaf_Network.borderLeaf.eth[0].mac.queue queueLength:vector ETV
attr interpolationmode sample-hold
attr source "count(packetPushed) - count(packetPopped) - count(packetRemoved) - count(packetDropped)"
attr title "queue length, vector"
759	189462 42 689 689 1.00004067 1.00004067 2 0 1 1 1
vector 760 XHost_SpineLeaf_Network.borderLeaf.eth[0].mac.queue packetPopped:vector(packetBytes) ETV
attr interpolationmode none
attr title "packet popped, vector(packetBytes)"
760	189504 22 689 689 1.00004067 1.00004067 1 64 64 64 4096
vector 761 XHost_SpineLeaf_Network.borderLeaf.eth[0].mac.queue queueingTime:vector ETV
attr interpolationmode none
attr source queueingTime(packetPopped)
attr title "queueing times, vector"
attr unit s
761	189526 21 689 689 1.00004067 1.00004067 1 0 0 0 0
vector 762 XHost_SpineLeaf_Network.borderLeaf.eth[2].mac packetReceivedFromUpper:vector(packetBytes) ETV
attr interpolationmode none
attr source packetReceivedFromUpper
attr title "packet bytes from higher layer, vector(packetBytes)"
762	189547 22 690 690 1.00004067 1.00004067 1 46 46 46 2116
vector 763 XHost_SpineLeaf_Network.borderLeaf.eth[2].mac.queue packetPushed:vector(packetBytes) ETV
attr interpolationmode none
attr title "packet pushed, vector(packetBytes)"
763	189569 22 690 690 1.00004067 1.00004067 1 64 64 64 4096
vector 764 XHost_SpineLeaf_Network.borderLeaf.eth[2].mac.queue queueLength:vector ETV
attr interpolationmode sample-hold
attr source "count(packetPushed) - count(packetPopped) - count(packetRemoved) - count(packetDropped)"
attr title "queue length, vector"
764	189591 42 690 690 1.00004067 1.00004067 2 0 1 1 1
vector 765 XHost_SpineLeaf_Network.borderLeaf.eth[2].mac.queue packetPopped:vector(packetBytes) ETV
attr interpolationmode none
attr title "packet popped, vector(packetBytes)"
765	189633 22 690 690 1.00004067 1.00004067 1 64 64 64 4096
vector 766 XHost_SpineLeaf_Network.borderLeaf.eth[2].mac.queue queueingTime:vector ETV
attr interpolationmode none
attr source queueingTime(packetPopped)
attr title "queueing times, vector"
attr unit s
766	189655 21 690 690 1.00004067 1.00004067 1 0 0 0 0
vector 767 XHost_SpineLeaf_Network.borderLeaf.eth[4].mac packetReceivedFromUpper:vector(packetBytes) ETV
attr interpolationmode none
attr source packetReceivedFromUpper
attr title "packet bytes from higher layer, vector(packetBytes)"
767	189676 22 691 691 1.00004067 1.00004067 1 46 46 46 2116
vector 768 XHost_SpineLeaf_Network.borderLeaf.eth[4].mac.queue packetPushed:vector(packetBytes) ETV
attr interpolationmode none
attr title "packet pushed, vector(packetBytes)"
768	189698 22 691 691 1.00004067 1.00004067 1 64 64 64 4096
vector 769 XHost_SpineLeaf_Network.borderLeaf.eth[4].mac.queue queueLength:vector ETV
attr interpolationmode sample-hold
attr source "count(packetPushed) - count(packetPopped) - count(packetRemoved) - count(packetDropped)"
attr title "queue length, vector"
769	189720 42 691 691 1.00004067 1.00004067 2 0 1 1 1
vector 770 XHost_SpineLeaf_Network.borderLeaf.eth[4].mac.queue packetPopped:vector(packetBytes) ETV
attr interpolationmode none
attr title "packet popped, vector(packetBytes)"
770	189762 22 691 691 1.00004067 1.00004067 1 64 64 64 4096
vector 771 XHost_SpineLeaf_Network.borderLeaf.eth[4].mac.queue queueingTime:vector ETV
attr interpolationmode none
attr source queueingTime(packetPopped)
attr title "queueing times, vector"
attr unit s
771	189784 21 691 691 1.00004067 1.00004067 1 0 0 0 0
vector 772 XHost_SpineLeaf_Network.borderLeaf.eth[0].mac txPk:vector(packetBytes) ETV
attr interpolationmode none
attr source packetSentToLower
attr title "packets transmitted, vector(packetBytes)"
772	189805 22 735 735 1.00004643 1.00004643 1 64 64 64 4096
vector 773 XHost_SpineLeaf_Network.borderLeaf.eth[2].mac txPk:vector(packetBytes) ETV
attr interpolationmode none
attr source packetSentToLower
attr title "packets transmitted, vector(packetBytes)"
773	189827 22 736 736 1.00004643 1.00004643 1 64 64 64 4096
vector 774 XHost_SpineLeaf_Network.borderLeaf.eth[4].mac txPk:vector(packetBytes) ETV
attr interpolationmode none
attr source packetSentToLower
attr title "packets transmitted, vector(packetBytes)"
774	189849 22 737 737 1.00004643 1.00004643 1 64 64 64 4096
vector 775 XHost_SpineLeaf_Network.spine[0].eth[0].mac rxPkOk:vector(packetBytes) ETV
attr interpolationmode none
attr source rxPkOk
attr title "packets received OK, vector(packetBytes)"
775	189871 22 738 738 1.00004648 1.00004648 1 64 64 64 4096
vector 776 XHost_SpineLeaf_Network.spine[0].eth[0].mac passedUpPk:vector(packetBytes) ETV
attr interpolationmode none
attr source packetSentToUpper
attr title "packets passed to higher layer, vector(packetBytes)"
776	189893 22 738 738 1.00004648 1.00004648 1 64 64 64 4096
vector 777 XHost_SpineLeaf_Network.spine[2].eth[0].mac rxPkOk:vector(packetBytes) ETV
attr interpolationmode none
attr source rxPkOk
attr title "packets received OK, vector(packetBytes)"
777	189915 22 739 739 1.00004648 1.00004648 1 64 64 64 4096
vector 778 XHost_SpineLeaf_Network.spine[2].eth[0].mac passedUpPk:vector(packetBytes) ETV
attr interpolationmode none
attr source packetSentToUpper
attr title "packets passed to higher layer, vector(packetBytes)"
778	189937 22 739 739 1.00004648 1.00004648 1 64 64 64 4096
vector 779 XHost_SpineLeaf_Network.spine[4].eth[0].mac rxPkOk:vector(packetBytes) ETV
attr interpolationmode none
attr source rxPkOk
attr title "packets received OK, vector(packetBytes)"
779	189959 22 740 740 1.00004648 1.00004648 1 64 64 64 4096
vector 780 XHost_SpineLeaf_Network.spine[4].eth[0].mac passedUpPk:vector(packetBytes) ETV
attr interpolationmode none
attr source packetSentToUpper
attr title "packets passed to higher layer, vector(packetBytes)"
780	189981 22 740 740 1.00004648 1.00004648 1 64 64 64 4096
vector 781 XHost_SpineLeaf_Network.spine[0].eth[0].encap decapPk:vector(packetBytes) ETV
attr interpolationmode none
attr source decapPk
attr title "packets decapsulated, vector(packetBytes)"
781	190003 22 741 741 1.00004648 1.00004648 1 46 46 46 2116
vector 782 XHost_SpineLeaf_Network.spine[2].eth[0].encap decapPk:vector(packetBytes) ETV
attr interpolationmode none
attr source decapPk
attr title "packets decapsulated, vector(packetBytes)"
782	190025 22 742 742 1.00004648 1.00004648 1 46 46 46 2116
vector 783 XHost_SpineLeaf_Network.spine[4].eth[0].encap decapPk:vector(packetBytes) ETV
attr interpolationmode none
attr source decapPk
attr title "packets decapsulated, vector(packetBytes)"
783	190047 22 743 743 1.00004648 1.00004648 1 46 46 46 2116
vector 784 XHost_SpineLeaf_Network.spine[0].eth[0].mac.queue packetDropQueueOverflow:vector(packetBytes) ETV
attr interpolationmode none
attr source packetDropReasonIsQueueOverflow(packetDropped)
attr title "packet drops: queue overflow, vector(packetBytes)"
784	190069 44 765 766 1.00004648 1.00004648 2 64 64 128 8192
vector 785 XHost_SpineLeaf_Network.spine[2].eth[0].mac.queue packetDropQueueOverflow:vector(packetBytes) ETV
attr interpolationmode none
attr source packetDropReasonIsQueueOverflow(packetDropped)
attr title "packet drops: queue overflow, vector(packetBytes)"
785	190113 88 769 772 1.00004648 1.00004648 4 64 64 256 16384
vector 786 XHost_SpineLeaf_Network.spine[4].eth[0].mac.queue packetDropQueueOverflow:vector(packetBytes) ETV
attr interpolationmode none
attr source packetDropReasonIsQueueOverflow(packetDropped)
attr title "packet drops: queue overflow, vector(packetBytes)"
786	190201 88 775 778 1.00004648 1.00004648 4 64 64 256 16384
vector 787 XHost_SpineLeaf_Network.borderLeaf.ipv4.arp arpRequestSent:vector(packetBytes) ETV
attr source arpRequestSent
attr title "ARP request sent, vector(packetBytes)"
787	190289 22 791 791 1.00005229 1.00005229 1 28 28 28 784
vector 788 XHost_SpineLeaf_Network.borderLeaf.eth[5].encap encapPk:vector(packetBytes) ETV
attr interpolationmode none
attr source encapPk
attr title "packets encapsulated, vector(packetBytes)"
788	190311 154 794 830 1.00005229 1.00006391 7 28 44 292 12400
vector 789 XHost_SpineLeaf_Network.borderLeaf.eth[5].mac packetReceivedFromUpper:vector(packetBytes) ETV
attr interpolationmode none
attr source packetReceivedFromUpper
attr title "packet bytes from higher layer, vector(packetBytes)"
789	190465 154 795 836 1.00005229 1.00006391 7 46 62 418 25180
vector 790 XHost_SpineLeaf_Network.borderLeaf.eth[5].mac.queue packetPushed:vector(packetBytes) ETV
attr interpolationmode none
attr title "packet pushed, vector(packetBytes)"
790	190619 154 795 836 1.00005229 1.00006391 7 64 64 448 28672
vector 791 XHost_SpineLeaf_Network.borderLeaf.eth[5].mac.queue queueLength:vector ETV
attr interpolationmode sample-hold
attr source "count(packetPushed) - count(packetPopped) - count(packetRemoved) - count(packetDropped)"
attr title "queue length, vector"
791	190773 273 795 836 1.00005229 1.00006391 13 0 2 15 23
vector 792 XHost_SpineLeaf_Network.borderLeaf.eth[5].mac.queue packetPopped:vector(packetBytes) ETV
attr interpolationmode none
attr title "packet popped, vector(packetBytes)"
792	191046 44 795 831 1.00005229 1.00006391 2 64 64 128 8192
vector 793 XHost_SpineLeaf_Network.borderLeaf.eth[5].mac.queue queueingTime:vector ETV
attr interpolationmode none
attr source queueingTime(packetPopped)
attr title "queueing times, vector"
attr unit s
793	191090 42 795 831 1.00005229 1.00006391 2 0 0 0 0
vector 794 XHost_SpineLeaf_Network.borderLeaf.eth[5].mac txPk:vector(packetBytes) ETV
attr interpolationmode none
attr source packetSentToLower
attr title "packets transmitted, vector(packetBytes)"
794	191132 44 799 838 1.00005805 1.00006967 2 64 64 128 8192
vector 795 XHost_SpineLeaf_Network.border.eth[0].mac rxPkOk:vector(packetBytes) ETV
attr interpolationmode none
attr source rxPkOk
attr title "packets received OK, vector(packetBytes)"
795	191176 43 800 839 1.0000581 1.00006972 2 64 64 128 8192
vector 796 XHost_SpineLeaf_Network.border.eth[0].mac passedUpPk:vector(packetBytes) ETV
attr interpolationmode none
attr source packetSentToUpper
attr title "packets passed to higher layer, vector(packetBytes)"
796	191219 43 800 839 1.0000581 1.00006972 2 64 64 128 8192
vector 797 XHost_SpineLeaf_Network.border.eth[0].encap decapPk:vector(packetBytes) ETV
attr interpolationmode none
attr source decapPk
attr title "packets decapsulated, vector(packetBytes)"
797	191262 43 801 840 1.0000581 1.00006972 2 46 46 92 4232
vector 798 XHost_SpineLeaf_Network.border.ipv4.arp arpReplySent:vector(packetBytes) ETV
attr source arpReplySent
attr title "ARP replies sent, vector(packetBytes)"
798	191305 21 802 802 1.0000581 1.0000581 1 28 28 28 784
vector 799 XHost_SpineLeaf_Network.border.eth[0].encap encapPk:vector(packetBytes) ETV
attr interpolationmode none
attr source encapPk
attr title "packets encapsulated, vector(packetBytes)"
799	191326 21 803 803 1.0000581 1.0000581 1 28 28 28 784
vector 800 XHost_SpineLeaf_Network.border.eth[0].mac packetReceivedFromUpper:vector(packetBytes) ETV
attr interpolationmode none
attr source packetReceivedFromUpper
attr title "packet bytes from higher layer, vector(packetBytes)"
800	191347 21 804 804 1.0000581 1.0000581 1 46 46 46 2116
vector 801 XHost_SpineLeaf_Network.border.eth[0].mac.queue packetPushed:vector(packetBytes) ETV
attr interpolationmode none
attr title "packet pushed, vector(packetBytes)"
801	191368 21 804 804 1.0000581 1.0000581 1 64 64 64 4096
vector 802 XHost_SpineLeaf_Network.border.eth[0].mac.queue queueLength:vector ETV
attr interpolationmode sample-hold
attr source "count(packetPushed) - count(packetPopped) - count(packetRemoved) - count(packetDropped)"
attr title "queue length, vector"
802	191389 40 804 804 1.0000581 1.0000581 2 0 1 1 1
vector 803 XHost_SpineLeaf_Network.border.eth[0].mac.queue packetPopped:vector(packetBytes) ETV
attr interpolationmode none
attr title "packet popped, vector(packetBytes)"
803	191429 21 804 804 1.0000581 1.0000581 1 64 64 64 4096
vector 804 XHost_SpineLeaf_Network.border.eth[0].mac.queue queueingTime:vector ETV
attr interpolationmode none
attr source queueingTime(packetPopped)
attr title "queueing times, vector"
attr unit s
804	191450 20 804 804 1.0000581 1.0000581 1 0 0 0 0
vector 805 XHost_SpineLeaf_Network.border.eth[0].mac txPk:vector(packetBytes) ETV
attr interpolationmode none
attr source packetSentToLower
attr title "packets transmitted, vector(packetBytes)"
805	191470 22 821 821 1.00006386 1.00006386 1 64 64 64 4096
vector 806 XHost_SpineLeaf_Network.borderLeaf.eth[5].mac rxPkOk:vector(packetBytes) ETV
attr interpolationmode none
attr source rxPkOk
attr title "packets received OK, vector(packetBytes)"
806	191492 22 822 822 1.00006391 1.00006391 1 64 64 64 4096
vector 807 XHost_SpineLeaf_Network.borderLeaf.eth[5].mac passedUpPk:vector(packetBytes) ETV
attr interpolationmode none
attr source packetSentToUpper
attr title "packets passed to higher layer, vector(packetBytes)"
807	191514 22 822 822 1.00006391 1.00006391 1 64 64 64 4096
vector 808 XHost_SpineLeaf_Network.borderLeaf.eth[5].encap decapPk:vector(packetBytes) ETV
attr interpolationmode none
attr source decapPk
attr title "packets decapsulated, vector(packetBytes)"
808	191536 22 823 823 1.00006391 1.00006391 1 46 46 46 2116
vector 809 XHost_SpineLeaf_Network.borderLeaf.eth[5].mac.queue packetDropQueueOverflow:vector(packetBytes) ETV
attr interpolationmode none
attr source packetDropReasonIsQueueOverflow(packetDropped)
attr title "packet drops: queue overflow, vector(packetBytes)"
809	191558 88 833 836 1.00006391 1.00006391 4 64 64 256 16384
vector 810 XHost_SpineLeaf_Network.border.tcp.conn-0 rcvSeq:vector ETV
attr interpolationmode sample-hold
810	191646 26 842 842 1.00006972 1.00006972 1 250000 250000 250000 62500000000
vector 811 XHost_SpineLeaf_Network.border.tcp.conn-0 rcvAck:vector ETV
attr interpolationmode sample-hold
811	191672 21 842 842 1.00006972 1.00006972 1 0 0 0 0
vector 812 XHost_SpineLeaf_Network.border.tcp.conn-33 rcvAdv:vector ETV
attr interpolationmode sample-hold
812	191693 52 842 842 1.00006972 1.00006972 2 257505 257505 515010 132617650050
vector 813 XHost_SpineLeaf_Network.border.tcp.conn-33 sndWnd:vector ETV
attr interpolationmode sample-hold
813	191745 24 842 842 1.00006972 1.00006972 1 7504 7504 7504 56310016
vector 814 XHost_SpineLeaf_Network.border.tcp.conn-33 tcpRcvQueueBytes:vector ETV
attr interpolationmode sample-hold
814	191769 21 842 842 1.00006972 1.00006972 1 0 0 0 0
vector 815 XHost_SpineLeaf_Network.border.tcp.conn-33 rcvWnd:vector ETV
attr interpolationmode sample-hold
815	191790 24 842 842 1.00006972 1.00006972 1 7504 7504 7504 56310016
vector 816 XHost_SpineLeaf_Network.border.tcp.conn-33 sndAck:vector ETV
attr interpolationmode sample-hold
816	191814 27 842 842 1.00006972 1.00006972 1 250001 250001 250001 62500500001
