version 2
run Traffic_1-0-20210127-22:01:13-196
attr configname Traffic_1
attr datetime 20210127-22:01:13
attr experiment Traffic_1
attr inifile _XHostSpineLeaf/XHost_SpineLeaf.ini
attr iterationvars ""
attr iterationvarsf ""
attr measurement ""
attr network XHost_SpineLeaf_Network
attr processid 196
attr repetition 0
attr replication #0
attr resultdir results
attr runnumber 0
attr seedset 0
param **.borderLeaf.**.packetCapacity 1
param **.leaf[*].**.packetCapacity 1
param **.spine[*].**.packetCapacity 1
param **.H[*].numApps 1
param **.border.numApps 1
param **.H[*].app[0].typename "\"TcpSessionApp\""
param **.H[*].app[0].connectAddress "\"border\""
param **.H[*].app[0].tOpen 1.0s
param **.H[*].app[0].tSend 1.1s
param **.H[*].app[0].sendBytes 100000B
param **.H[*].app[0].tClose 0s
param **.border.app[0].typename "\"TcpEchoApp\""
param **.LanVisualizer.interfaceTableVisualizer.displayInterfaceTables true
param **.LanVisualizer.interfaceTableVisualizer.displayWiredInterfacesAtConnections false
param **.LanVisualizer.interfaceTableVisualizer.nodeFilter "\"not (*topOfRack or *H*)\""
param **.LanVisualizer.interfaceTableVisualizer.placementPriority 2
param **.LanVisualizer.interfaceTableVisualizer.format "\"%N %\\\\%n/%l%\\\\%m\""
param **.LanVisualizer.packetDropVisualizer.displayPacketDrops true
param **.LanVisualizer.packetDropVisualizer.labelFormat "\"%n/reason: %r\""
param **.LanVisualizer.packetDropVisualizer.fadeOutTime 10s
param **.LeafVisualizer.interfaceTableVisualizer.displayInterfaceTables true
param **.LeafVisualizer.interfaceTableVisualizer.displayWiredInterfacesAtConnections false
param **.LeafVisualizer.interfaceTableVisualizer.placementPriority 2
param **.LeafVisualizer.interfaceTableVisualizer.format "\"%N %\\\\%n/%l%\\\\%m\""
param **.configurator.config "xmldoc(\"../../Research/Spine-Leaf-ManualDCN/_XHostSpineLeaf/XHost_SpineLeaf_Routing.xml\")"

scalar XHost_SpineLeaf_Network.spine[0].lo[0].lo rcvdPkFromHl:count 0
attr interpolationmode none
attr source packetReceivedFromUpper
attr title "packets received from higher layer, count"
scalar XHost_SpineLeaf_Network.spine[0].lo[0].lo rcvdPkFromHl:sum(packetBytes) 0
attr interpolationmode none
attr source packetReceivedFromUpper
attr title "packets received from higher layer, sum(packetBytes)"
scalar XHost_SpineLeaf_Network.spine[0].lo[0].lo passedUpPk:count 0
attr interpolationmode none
attr source packetSentToUpper
attr title "packets passed to higher layer, count"
scalar XHost_SpineLeaf_Network.spine[0].lo[0].lo passedUpPk:sum(packetBytes) 0
attr interpolationmode none
attr source packetSentToUpper
attr title "packets passed to higher layer, sum(packetBytes)"
scalar XHost_SpineLeaf_Network.spine[0].eth[0].mac.queue packetPopped:count 1240
attr interpolationmode none
attr title "packet popped, count"
scalar XHost_SpineLeaf_Network.spine[0].eth[0].mac.queue packetPopped:sum(packetBytes) 398657
attr interpolationmode none
attr title "packet popped, sum(packetBytes)"
statistic XHost_SpineLeaf_Network.spine[0].eth[0].mac.queue queueingTime:histogram
field count 1240
field mean 1.2184032258065e-006
field stddev 6.3415630934677e-006
field min 0
field max 4.24e-005
field sum 0.00151082
field sqrsum 5.16676964e-008
attr interpolationmode none
attr source queueingTime(packetPopped)
attr title "queueing times, histogram"
attr unit s
bin	-inf	0
bin	0	1181
bin	1e-006	0
bin	2e-006	0
bin	3e-006	0
bin	4e-006	0
bin	5e-006	0
bin	6e-006	16
bin	7e-006	0
bin	8e-006	0
bin	9e-006	0
bin	1e-005	0
bin	1.1e-005	0
bin	1.2e-005	0
bin	1.3e-005	7
bin	1.4e-005	0
bin	1.5e-005	0
bin	1.6e-005	0
bin	1.7e-005	0
bin	1.8e-005	1
bin	1.9e-005	0
bin	2e-005	0
bin	2.1e-005	0
bin	2.2e-005	4
bin	2.3e-005	0
bin	2.4e-005	0
bin	2.5e-005	1
bin	2.6e-005	1
bin	2.7e-005	0
bin	2.8e-005	1
bin	2.9e-005	1
bin	3e-005	0
bin	3.1e-005	0
bin	3.2e-005	0
bin	3.3e-005	1
bin	3.4e-005	0
bin	3.5e-005	7
bin	3.6e-005	0
bin	3.7e-005	0
bin	3.8e-005	0
bin	3.9e-005	0
bin	4e-005	0
bin	4.1e-005	0
bin	4.2e-005	19
bin	4.3e-005	0
bin	4.4e-005	0
bin	4.5e-005	0
bin	4.6e-005	0
bin	4.7e-005	0
bin	4.8e-005	0
bin	4.9e-005	0
bin	5e-005	0
bin	5.1e-005	0
bin	5.2e-005	0
bin	5.3e-005	0
scalar XHost_SpineLeaf_Network.spine[0].eth[0].mac.queue queueLength:max 2
attr interpolationmode sample-hold
attr source "count(packetPushed) - count(packetPopped) - count(packetRemoved) - count(packetDropped)"
attr title "queue length, max"
scalar XHost_SpineLeaf_Network.spine[0].eth[0].mac.queue queueLength:timeavg 5.3076545319113e-006
attr interpolationmode sample-hold
attr source "count(packetPushed) - count(packetPopped) - count(packetRemoved) - count(packetDropped)"
attr title "queue length, timeavg"
scalar XHost_SpineLeaf_Network.spine[0].eth[0].mac.queue packetPushed:count 1244
attr interpolationmode none
attr title "packet pushed, count"
scalar XHost_SpineLeaf_Network.spine[0].eth[0].mac.queue packetPushed:sum(packetBytes) 398913
attr interpolationmode none
attr title "packet pushed, sum(packetBytes)"
scalar XHost_SpineLeaf_Network.spine[0].eth[0].mac.queue packetDropQueueOverflow:count 4
attr interpolationmode none
attr source packetDropReasonIsQueueOverflow(packetDropped)
attr title "packet drops: queue overflow, count"
scalar XHost_SpineLeaf_Network.spine[0].eth[0].mac.queue packetDropQueueOverflow:sum(packetBytes) 256
attr interpolationmode none
attr source packetDropReasonIsQueueOverflow(packetDropped)
attr title "packet drops: queue overflow, sum(packetBytes)"
scalar XHost_SpineLeaf_Network.spine[0].eth[0].mac.queue packetRemoved:count 0
attr interpolationmode none
attr title "packets removed, count"
scalar XHost_SpineLeaf_Network.spine[0].eth[0].mac.queue packetRemoved:sum(packetBytes) 0
attr interpolationmode none
attr title "packets removed, sum(packetBytes)"
scalar XHost_SpineLeaf_Network.spine[0].eth[0].mac "simulated time" 285.64930713582
scalar XHost_SpineLeaf_Network.spine[0].eth[0].mac full-duplex 1
scalar XHost_SpineLeaf_Network.spine[0].eth[0].mac "frames/sec sent" 4.3409872491321
scalar XHost_SpineLeaf_Network.spine[0].eth[0].mac "frames/sec rcvd" 4.3584912299754
scalar XHost_SpineLeaf_Network.spine[0].eth[0].mac "bits/sec sent" 11164.93518566
scalar XHost_SpineLeaf_Network.spine[0].eth[0].mac "bits/sec rcvd" 11278.164936939
scalar XHost_SpineLeaf_Network.spine[0].eth[0].mac "rx channel idle (%)" 100
scalar XHost_SpineLeaf_Network.spine[0].eth[0].mac "rx channel utilization (%)" 0
scalar XHost_SpineLeaf_Network.spine[0].eth[0].mac txPk:count 1240
attr interpolationmode none
attr source packetSentToLower
attr title "packets transmitted, count"
scalar XHost_SpineLeaf_Network.spine[0].eth[0].mac txPk:sum(packetBytes) 398657
attr interpolationmode none
attr source packetSentToLower
attr title "packets transmitted, sum(packetBytes)"
scalar XHost_SpineLeaf_Network.spine[0].eth[0].mac packetReceivedFromUpper:count 1244
attr interpolationmode none
attr source packetReceivedFromUpper
attr title "packet bytes from higher layer, count"
scalar XHost_SpineLeaf_Network.spine[0].eth[0].mac packetReceivedFromUpper:sum(packetBytes) 394917
attr interpolationmode none
attr source packetReceivedFromUpper
attr title "packet bytes from higher layer, sum(packetBytes)"
scalar XHost_SpineLeaf_Network.spine[0].eth[0].mac passedUpPk:count 1245
attr interpolationmode none
attr source packetSentToUpper
attr title "packets passed to higher layer, count"
scalar XHost_SpineLeaf_Network.spine[0].eth[0].mac passedUpPk:sum(packetBytes) 402700
attr interpolationmode none
attr source packetSentToUpper
attr title "packets passed to higher layer, sum(packetBytes)"
scalar XHost_SpineLeaf_Network.spine[0].eth[0].mac packetDropIncorrectlyReceived:count 0
attr interpolationmode none
attr source packetDropReasonIsIncorrectlyReceived(packetDropped)
attr title "packet drop: incorrectly received, count"
scalar XHost_SpineLeaf_Network.spine[0].eth[0].mac packetDropIncorrectlyReceived:sum(packetBytes) 0
attr interpolationmode none
attr source packetDropReasonIsIncorrectlyReceived(packetDropped)
attr title "packet drop: incorrectly received, sum(packetBytes)"
scalar XHost_SpineLeaf_Network.spine[0].eth[0].mac packetDropInterfaceDown:count 0
attr interpolationmode none
attr source packetDropReasonIsInterfaceDown(packetDropped)
attr title "packet drop: interface down, count"
scalar XHost_SpineLeaf_Network.spine[0].eth[0].mac packetDropInterfaceDown:sum(packetBytes) 0
attr interpolationmode none
attr source packetDropReasonIsInterfaceDown(packetDropped)
attr title "packet drop: interface down, sum(packetBytes)"
scalar XHost_SpineLeaf_Network.spine[0].eth[0].mac packetDropNotAddressedToUs:count 0
attr interpolationmode none
attr source packetDropReasonIsNotAddressedToUs(packetDropped)
attr title "packet drop: not addressed to us, count"
scalar XHost_SpineLeaf_Network.spine[0].eth[0].mac packetDropNotAddressedToUs:sum(packetBytes) 0
attr interpolationmode none
attr source packetDropReasonIsNotAddressedToUs(packetDropped)
attr title "packet drop: not addressed to us, sum(packetBytes)"
scalar XHost_SpineLeaf_Network.spine[0].eth[0].mac rxPausePkUnits:count 0
attr interpolationmode none
attr title "pause units received, count"
scalar XHost_SpineLeaf_Network.spine[0].eth[0].mac rxPausePkUnits:sum 0
attr interpolationmode none
attr title "pause units received, sum"
scalar XHost_SpineLeaf_Network.spine[0].eth[0].mac txPausePkUnits:count 0
attr interpolationmode none
attr title "pause units sent, count"
scalar XHost_SpineLeaf_Network.spine[0].eth[0].mac txPausePkUnits:sum 0
attr interpolationmode none
attr title "pause units sent, sum"
scalar XHost_SpineLeaf_Network.spine[0].eth[0].mac rxPkOk:count 1245
attr interpolationmode none
attr source rxPkOk
attr title "packets received OK, count"
scalar XHost_SpineLeaf_Network.spine[0].eth[0].mac rxPkOk:sum(packetBytes) 402700
attr interpolationmode none
attr source rxPkOk
attr title "packets received OK, sum(packetBytes)"
scalar XHost_SpineLeaf_Network.spine[0].eth[0].encap pauseSent:count 0
attr title "pause sent, count"
scalar XHost_SpineLeaf_Network.spine[0].eth[0].encap pauseSent:sum 0
attr title "pause sent, sum"
scalar XHost_SpineLeaf_Network.spine[0].eth[0].encap decapPk:count 1245
attr interpolationmode none
attr source decapPk
attr title "packets decapsulated, count"
scalar XHost_SpineLeaf_Network.spine[0].eth[0].encap decapPk:sum(packetBytes) 380290
attr interpolationmode none
attr source decapPk
attr title "packets decapsulated, sum(packetBytes)"
scalar XHost_SpineLeaf_Network.spine[0].eth[0].encap encapPk:count 1244
attr interpolationmode none
attr source encapPk
attr title "packets encapsulated, count"
scalar XHost_SpineLeaf_Network.spine[0].eth[0].encap encapPk:sum(packetBytes) 372525
attr interpolationmode none
attr source encapPk
attr title "packets encapsulated, sum(packetBytes)"
scalar XHost_SpineLeaf_Network.spine[0].eth[1].mac.queue packetPopped:count 166
attr interpolationmode none
attr title "packet popped, count"
scalar XHost_SpineLeaf_Network.spine[0].eth[1].mac.queue packetPopped:sum(packetBytes) 51586
attr interpolationmode none
attr title "packet popped, sum(packetBytes)"
statistic XHost_SpineLeaf_Network.spine[0].eth[1].mac.queue queueingTime:histogram
field count 166
field mean 1.5956626506024e-006
field stddev 7.4206578476282e-006
field min 0
field max 4.24e-005
field sum 0.00026488
field sqrsum 9.508576e-009
attr interpolationmode none
attr source queueingTime(packetPopped)
attr title "queueing times, histogram"
attr unit s
bin	-inf	0
bin	0	158
bin	1e-006	0
bin	2e-006	0
bin	3e-006	0
bin	4e-006	0
bin	5e-006	0
bin	6e-006	0
bin	7e-006	0
bin	8e-006	0
bin	9e-006	0
bin	1e-005	0
bin	1.1e-005	0
bin	1.2e-005	0
bin	1.3e-005	0
bin	1.4e-005	0
bin	1.5e-005	0
bin	1.6e-005	0
bin	1.7e-005	0
bin	1.8e-005	0
bin	1.9e-005	0
bin	2e-005	1
bin	2.1e-005	0
bin	2.2e-005	2
bin	2.3e-005	0
bin	2.4e-005	0
bin	2.5e-005	0
bin	2.6e-005	0
bin	2.7e-005	0
bin	2.8e-005	0
bin	2.9e-005	1
bin	3e-005	0
bin	3.1e-005	0
bin	3.2e-005	0
bin	3.3e-005	0
bin	3.4e-005	0
bin	3.5e-005	0
bin	3.6e-005	0
bin	3.7e-005	0
bin	3.8e-005	0
bin	3.9e-005	0
bin	4e-005	0
bin	4.1e-005	0
bin	4.2e-005	4
bin	4.3e-005	0
bin	4.4e-005	0
bin	4.5e-005	0
bin	4.6e-005	0
bin	4.7e-005	0
bin	4.8e-005	0
bin	4.9e-005	0
bin	5e-005	0
bin	5.1e-005	0
bin	5.2e-005	0
bin	5.3e-005	0
scalar XHost_SpineLeaf_Network.spine[0].eth[1].mac.queue queueLength:max 1
attr interpolationmode sample-hold
attr source "count(packetPushed) - count(packetPopped) - count(packetRemoved) - count(packetDropped)"
attr title "queue length, max"
scalar XHost_SpineLeaf_Network.spine[0].eth[1].mac.queue queueLength:timeavg 9.3087628225121e-007
attr interpolationmode sample-hold
attr source "count(packetPushed) - count(packetPopped) - count(packetRemoved) - count(packetDropped)"
attr title "queue length, timeavg"
scalar XHost_SpineLeaf_Network.spine[0].eth[1].mac.queue packetPushed:count 166
attr interpolationmode none
attr title "packet pushed, count"
scalar XHost_SpineLeaf_Network.spine[0].eth[1].mac.queue packetPushed:sum(packetBytes) 51586
attr interpolationmode none
attr title "packet pushed, sum(packetBytes)"
scalar XHost_SpineLeaf_Network.spine[0].eth[1].mac.queue packetDropQueueOverflow:count 0
attr interpolationmode none
attr source packetDropReasonIsQueueOverflow(packetDropped)
attr title "packet drops: queue overflow, count"
scalar XHost_SpineLeaf_Network.spine[0].eth[1].mac.queue packetDropQueueOverflow:sum(packetBytes) 0
attr interpolationmode none
attr source packetDropReasonIsQueueOverflow(packetDropped)
attr title "packet drops: queue overflow, sum(packetBytes)"
scalar XHost_SpineLeaf_Network.spine[0].eth[1].mac.queue packetRemoved:count 0
attr interpolationmode none
attr title "packets removed, count"
scalar XHost_SpineLeaf_Network.spine[0].eth[1].mac.queue packetRemoved:sum(packetBytes) 0
attr interpolationmode none
attr title "packets removed, sum(packetBytes)"
scalar XHost_SpineLeaf_Network.spine[0].eth[1].mac "simulated time" 285.64930713582
scalar XHost_SpineLeaf_Network.spine[0].eth[1].mac full-duplex 1
scalar XHost_SpineLeaf_Network.spine[0].eth[1].mac "frames/sec sent" 0.58113216399672
scalar XHost_SpineLeaf_Network.spine[0].eth[1].mac "frames/sec rcvd" 0.5356218138042
scalar XHost_SpineLeaf_Network.spine[0].eth[1].mac "bits/sec sent" 1444.7365692499
scalar XHost_SpineLeaf_Network.spine[0].eth[1].mac "bits/sec rcvd" 1533.4607473483
scalar XHost_SpineLeaf_Network.spine[0].eth[1].mac "rx channel idle (%)" 100
scalar XHost_SpineLeaf_Network.spine[0].eth[1].mac "rx channel utilization (%)" 0
scalar XHost_SpineLeaf_Network.spine[0].eth[1].mac txPk:count 166
attr interpolationmode none
attr source packetSentToLower
attr title "packets transmitted, count"
scalar XHost_SpineLeaf_Network.spine[0].eth[1].mac txPk:sum(packetBytes) 51586
attr interpolationmode none
attr source packetSentToLower
attr title "packets transmitted, sum(packetBytes)"
scalar XHost_SpineLeaf_Network.spine[0].eth[1].mac packetReceivedFromUpper:count 166
attr interpolationmode none
attr source packetReceivedFromUpper
attr title "packet bytes from higher layer, count"
scalar XHost_SpineLeaf_Network.spine[0].eth[1].mac packetReceivedFromUpper:sum(packetBytes) 51034
attr interpolationmode none
attr source packetReceivedFromUpper
attr title "packet bytes from higher layer, sum(packetBytes)"
scalar XHost_SpineLeaf_Network.spine[0].eth[1].mac passedUpPk:count 153
attr interpolationmode none
attr source packetSentToUpper
attr title "packets passed to higher layer, count"
scalar XHost_SpineLeaf_Network.spine[0].eth[1].mac passedUpPk:sum(packetBytes) 54754
attr interpolationmode none
attr source packetSentToUpper
attr title "packets passed to higher layer, sum(packetBytes)"
scalar XHost_SpineLeaf_Network.spine[0].eth[1].mac packetDropIncorrectlyReceived:count 0
attr interpolationmode none
attr source packetDropReasonIsIncorrectlyReceived(packetDropped)
attr title "packet drop: incorrectly received, count"
scalar XHost_SpineLeaf_Network.spine[0].eth[1].mac packetDropIncorrectlyReceived:sum(packetBytes) 0
attr interpolationmode none
attr source packetDropReasonIsIncorrectlyReceived(packetDropped)
attr title "packet drop: incorrectly received, sum(packetBytes)"
scalar XHost_SpineLeaf_Network.spine[0].eth[1].mac packetDropInterfaceDown:count 0
attr interpolationmode none
attr source packetDropReasonIsInterfaceDown(packetDropped)
attr title "packet drop: interface down, count"
scalar XHost_SpineLeaf_Network.spine[0].eth[1].mac packetDropInterfaceDown:sum(packetBytes) 0
attr interpolationmode none
attr source packetDropReasonIsInterfaceDown(packetDropped)
attr title "packet drop: interface down, sum(packetBytes)"
scalar XHost_SpineLeaf_Network.spine[0].eth[1].mac packetDropNotAddressedToUs:count 0
attr interpolationmode none
attr source packetDropReasonIsNotAddressedToUs(packetDropped)
attr title "packet drop: not addressed to us, count"
scalar XHost_SpineLeaf_Network.spine[0].eth[1].mac packetDropNotAddressedToUs:sum(packetBytes) 0
attr interpolationmode none
attr source packetDropReasonIsNotAddressedToUs(packetDropped)
attr title "packet drop: not addressed to us, sum(packetBytes)"
scalar XHost_SpineLeaf_Network.spine[0].eth[1].mac rxPausePkUnits:count 0
attr interpolationmode none
attr title "pause units received, count"
scalar XHost_SpineLeaf_Network.spine[0].eth[1].mac rxPausePkUnits:sum 0
attr interpolationmode none
attr title "pause units received, sum"
scalar XHost_SpineLeaf_Network.spine[0].eth[1].mac txPausePkUnits:count 0
attr interpolationmode none
attr title "pause units sent, count"
scalar XHost_SpineLeaf_Network.spine[0].eth[1].mac txPausePkUnits:sum 0
attr interpolationmode none
attr title "pause units sent, sum"
scalar XHost_SpineLeaf_Network.spine[0].eth[1].mac rxPkOk:count 153
attr interpolationmode none
attr source rxPkOk
attr title "packets received OK, count"
scalar XHost_SpineLeaf_Network.spine[0].eth[1].mac rxPkOk:sum(packetBytes) 54754
attr interpolationmode none
attr source rxPkOk
attr title "packets received OK, sum(packetBytes)"
scalar XHost_SpineLeaf_Network.spine[0].eth[1].encap pauseSent:count 0
attr title "pause sent, count"
scalar XHost_SpineLeaf_Network.spine[0].eth[1].encap pauseSent:sum 0
attr title "pause sent, sum"
scalar XHost_SpineLeaf_Network.spine[0].eth[1].encap decapPk:count 153
attr interpolationmode none
attr source decapPk
attr title "packets decapsulated, count"
scalar XHost_SpineLeaf_Network.spine[0].eth[1].encap decapPk:sum(packetBytes) 52000
attr interpolationmode none
attr source decapPk
attr title "packets decapsulated, sum(packetBytes)"
scalar XHost_SpineLeaf_Network.spine[0].eth[1].encap encapPk:count 166
attr interpolationmode none
attr source encapPk
attr title "packets encapsulated, count"
scalar XHost_SpineLeaf_Network.spine[0].eth[1].encap encapPk:sum(packetBytes) 48046
attr interpolationmode none
attr source encapPk
attr title "packets encapsulated, sum(packetBytes)"
scalar XHost_SpineLeaf_Network.spine[0].eth[2].mac.queue packetPopped:count 171
attr interpolationmode none
attr title "packet popped, count"
scalar XHost_SpineLeaf_Network.spine[0].eth[2].mac.queue packetPopped:sum(packetBytes) 52814
attr interpolationmode none
attr title "packet popped, sum(packetBytes)"
statistic XHost_SpineLeaf_Network.spine[0].eth[2].mac.queue queueingTime:histogram
field count 171
field mean 1.0858479532164e-006
field stddev 6.2286528389781e-006
field min 0
field max 4.24e-005
field sum 0.00018568
field sqrsum 6.79696e-009
attr interpolationmode none
attr source queueingTime(packetPopped)
attr title "queueing times, histogram"
attr unit s
bin	-inf	0
bin	0	165
bin	1e-006	0
bin	2e-006	0
bin	3e-006	0
bin	4e-006	0
bin	5e-006	0
bin	6e-006	1
bin	7e-006	0
bin	8e-006	0
bin	9e-006	0
bin	1e-005	0
bin	1.1e-005	0
bin	1.2e-005	0
bin	1.3e-005	0
bin	1.4e-005	0
bin	1.5e-005	0
bin	1.6e-005	0
bin	1.7e-005	0
bin	1.8e-005	0
bin	1.9e-005	0
bin	2e-005	0
bin	2.1e-005	0
bin	2.2e-005	1
bin	2.3e-005	0
bin	2.4e-005	0
bin	2.5e-005	0
bin	2.6e-005	0
bin	2.7e-005	0
bin	2.8e-005	1
bin	2.9e-005	0
bin	3e-005	0
bin	3.1e-005	0
bin	3.2e-005	0
bin	3.3e-005	0
bin	3.4e-005	0
bin	3.5e-005	0
bin	3.6e-005	0
bin	3.7e-005	0
bin	3.8e-005	0
bin	3.9e-005	0
bin	4e-005	0
bin	4.1e-005	0
bin	4.2e-005	3
bin	4.3e-005	0
bin	4.4e-005	0
bin	4.5e-005	0
bin	4.6e-005	0
bin	4.7e-005	0
bin	4.8e-005	0
bin	4.9e-005	0
bin	5e-005	0
bin	5.1e-005	0
bin	5.2e-005	0
bin	5.3e-005	0
scalar XHost_SpineLeaf_Network.spine[0].eth[2].mac.queue queueLength:max 1
attr interpolationmode sample-hold
attr source "count(packetPushed) - count(packetPopped) - count(packetRemoved) - count(packetDropped)"
attr title "queue length, max"
scalar XHost_SpineLeaf_Network.spine[0].eth[2].mac.queue queueLength:timeavg 6.5785303701287e-007
attr interpolationmode sample-hold
attr source "count(packetPushed) - count(packetPopped) - count(packetRemoved) - count(packetDropped)"
attr title "queue length, timeavg"
scalar XHost_SpineLeaf_Network.spine[0].eth[2].mac.queue packetPushed:count 171
attr interpolationmode none
attr title "packet pushed, count"
scalar XHost_SpineLeaf_Network.spine[0].eth[2].mac.queue packetPushed:sum(packetBytes) 52814
attr interpolationmode none
attr title "packet pushed, sum(packetBytes)"
scalar XHost_SpineLeaf_Network.spine[0].eth[2].mac.queue packetDropQueueOverflow:count 0
attr interpolationmode none
attr source packetDropReasonIsQueueOverflow(packetDropped)
attr title "packet drops: queue overflow, count"
scalar XHost_SpineLeaf_Network.spine[0].eth[2].mac.queue packetDropQueueOverflow:sum(packetBytes) 0
attr interpolationmode none
attr source packetDropReasonIsQueueOverflow(packetDropped)
attr title "packet drops: queue overflow, sum(packetBytes)"
scalar XHost_SpineLeaf_Network.spine[0].eth[2].mac.queue packetRemoved:count 0
attr interpolationmode none
attr title "packets removed, count"
scalar XHost_SpineLeaf_Network.spine[0].eth[2].mac.queue packetRemoved:sum(packetBytes) 0
attr interpolationmode none
attr title "packets removed, sum(packetBytes)"
scalar XHost_SpineLeaf_Network.spine[0].eth[2].mac "simulated time" 285.64930713582
scalar XHost_SpineLeaf_Network.spine[0].eth[2].mac full-duplex 1
scalar XHost_SpineLeaf_Network.spine[0].eth[2].mac "frames/sec sent" 0.59863614483999
scalar XHost_SpineLeaf_Network.spine[0].eth[2].mac "frames/sec rcvd" 0.51111624062362
scalar XHost_SpineLeaf_Network.spine[0].eth[2].mac "bits/sec sent" 1479.1283908107
scalar XHost_SpineLeaf_Network.spine[0].eth[2].mac "bits/sec rcvd" 1312.6025186602
scalar XHost_SpineLeaf_Network.spine[0].eth[2].mac "rx channel idle (%)" 100
scalar XHost_SpineLeaf_Network.spine[0].eth[2].mac "rx channel utilization (%)" 0
scalar XHost_SpineLeaf_Network.spine[0].eth[2].mac txPk:count 171
attr interpolationmode none
attr source packetSentToLower
attr title "packets transmitted, count"
scalar XHost_SpineLeaf_Network.spine[0].eth[2].mac txPk:sum(packetBytes) 52814
attr interpolationmode none
attr source packetSentToLower
attr title "packets transmitted, sum(packetBytes)"
scalar XHost_SpineLeaf_Network.spine[0].eth[2].mac packetReceivedFromUpper:count 171
attr interpolationmode none
attr source packetReceivedFromUpper
attr title "packet bytes from higher layer, count"
scalar XHost_SpineLeaf_Network.spine[0].eth[2].mac packetReceivedFromUpper:sum(packetBytes) 52250
attr interpolationmode none
attr source packetReceivedFromUpper
attr title "packet bytes from higher layer, sum(packetBytes)"
scalar XHost_SpineLeaf_Network.spine[0].eth[2].mac passedUpPk:count 146
attr interpolationmode none
attr source packetSentToUpper
attr title "packets passed to higher layer, count"
scalar XHost_SpineLeaf_Network.spine[0].eth[2].mac passedUpPk:sum(packetBytes) 46868
attr interpolationmode none
attr source packetSentToUpper
attr title "packets passed to higher layer, sum(packetBytes)"
scalar XHost_SpineLeaf_Network.spine[0].eth[2].mac packetDropIncorrectlyReceived:count 0
attr interpolationmode none
attr source packetDropReasonIsIncorrectlyReceived(packetDropped)
attr title "packet drop: incorrectly received, count"
scalar XHost_SpineLeaf_Network.spine[0].eth[2].mac packetDropIncorrectlyReceived:sum(packetBytes) 0
attr interpolationmode none
attr source packetDropReasonIsIncorrectlyReceived(packetDropped)
attr title "packet drop: incorrectly received, sum(packetBytes)"
scalar XHost_SpineLeaf_Network.spine[0].eth[2].mac packetDropInterfaceDown:count 0
attr interpolationmode none
attr source packetDropReasonIsInterfaceDown(packetDropped)
attr title "packet drop: interface down, count"
scalar XHost_SpineLeaf_Network.spine[0].eth[2].mac packetDropInterfaceDown:sum(packetBytes) 0
attr interpolationmode none
attr source packetDropReasonIsInterfaceDown(packetDropped)
attr title "packet drop: interface down, sum(packetBytes)"
scalar XHost_SpineLeaf_Network.spine[0].eth[2].mac packetDropNotAddressedToUs:count 0
attr interpolationmode none
attr source packetDropReasonIsNotAddressedToUs(packetDropped)
attr title "packet drop: not addressed to us, count"
scalar XHost_SpineLeaf_Network.spine[0].eth[2].mac packetDropNotAddressedToUs:sum(packetBytes) 0
attr interpolationmode none
attr source packetDropReasonIsNotAddressedToUs(packetDropped)
attr title "packet drop: not addressed to us, sum(packetBytes)"
scalar XHost_SpineLeaf_Network.spine[0].eth[2].mac rxPausePkUnits:count 0
attr interpolationmode none
attr title "pause units received, count"
scalar XHost_SpineLeaf_Network.spine[0].eth[2].mac rxPausePkUnits:sum 0
attr interpolationmode none
attr title "pause units received, sum"
scalar XHost_SpineLeaf_Network.spine[0].eth[2].mac txPausePkUnits:count 0
attr interpolationmode none
attr title "pause units sent, count"
scalar XHost_SpineLeaf_Network.spine[0].eth[2].mac txPausePkUnits:sum 0
attr interpolationmode none
attr title "pause units sent, sum"
scalar XHost_SpineLeaf_Network.spine[0].eth[2].mac rxPkOk:count 146
attr interpolationmode none
attr source rxPkOk
attr title "packets received OK, count"
scalar XHost_SpineLeaf_Network.spine[0].eth[2].mac rxPkOk:sum(packetBytes) 46868
attr interpolationmode none
attr source rxPkOk
attr title "packets received OK, sum(packetBytes)"
scalar XHost_SpineLeaf_Network.spine[0].eth[2].encap pauseSent:count 0
attr title "pause sent, count"
scalar XHost_SpineLeaf_Network.spine[0].eth[2].encap pauseSent:sum 0
attr title "pause sent, sum"
scalar XHost_SpineLeaf_Network.spine[0].eth[2].encap decapPk:count 146
attr interpolationmode none
attr source decapPk
attr title "packets decapsulated, count"
scalar XHost_SpineLeaf_Network.spine[0].eth[2].encap decapPk:sum(packetBytes) 44240
attr interpolationmode none
attr source decapPk
attr title "packets decapsulated, sum(packetBytes)"
scalar XHost_SpineLeaf_Network.spine[0].eth[2].encap encapPk:count 171
attr interpolationmode none
attr source encapPk
attr title "packets encapsulated, count"
scalar XHost_SpineLeaf_Network.spine[0].eth[2].encap encapPk:sum(packetBytes) 49172
attr interpolationmode none
attr source encapPk
attr title "packets encapsulated, sum(packetBytes)"
scalar XHost_SpineLeaf_Network.spine[0].eth[3].mac.queue packetPopped:count 171
attr interpolationmode none
attr title "packet popped, count"
scalar XHost_SpineLeaf_Network.spine[0].eth[3].mac.queue packetPopped:sum(packetBytes) 55464
attr interpolationmode none
attr title "packet popped, sum(packetBytes)"
statistic XHost_SpineLeaf_Network.spine[0].eth[3].mac.queue queueingTime:histogram
field count 171
field mean 1.8297076023392e-006
field stddev 8.094377818396e-006
field min 0
field max 4.24e-005
field sum 0.00031288
field sqrsum 1.17107008e-008
attr interpolationmode none
attr source queueingTime(packetPopped)
attr title "queueing times, histogram"
attr unit s
bin	-inf	0
bin	0	161
bin	1e-006	0
bin	2e-006	0
bin	3e-006	0
bin	4e-006	0
bin	5e-006	0
bin	6e-006	2
bin	7e-006	0
bin	8e-006	0
bin	9e-006	0
bin	1e-005	0
bin	1.1e-005	0
bin	1.2e-005	0
bin	1.3e-005	0
bin	1.4e-005	0
bin	1.5e-005	0
bin	1.6e-005	0
bin	1.7e-005	0
bin	1.8e-005	0
bin	1.9e-005	0
bin	2e-005	0
bin	2.1e-005	0
bin	2.2e-005	1
bin	2.3e-005	0
bin	2.4e-005	0
bin	2.5e-005	0
bin	2.6e-005	0
bin	2.7e-005	0
bin	2.8e-005	1
bin	2.9e-005	0
bin	3e-005	0
bin	3.1e-005	0
bin	3.2e-005	0
bin	3.3e-005	0
bin	3.4e-005	0
bin	3.5e-005	1
bin	3.6e-005	0
bin	3.7e-005	0
bin	3.8e-005	0
bin	3.9e-005	0
bin	4e-005	0
bin	4.1e-005	0
bin	4.2e-005	5
bin	4.3e-005	0
bin	4.4e-005	0
bin	4.5e-005	0
bin	4.6e-005	0
bin	4.7e-005	0
bin	4.8e-005	0
bin	4.9e-005	0
bin	5e-005	0
bin	5.1e-005	0
bin	5.2e-005	0
bin	5.3e-005	0
scalar XHost_SpineLeaf_Network.spine[0].eth[3].mac.queue queueLength:max 2
attr interpolationmode sample-hold
attr source "count(packetPushed) - count(packetPopped) - count(packetRemoved) - count(packetDropped)"
attr title "queue length, max"
scalar XHost_SpineLeaf_Network.spine[0].eth[3].mac.queue queueLength:timeavg 1.1213382815198e-006
attr interpolationmode sample-hold
attr source "count(packetPushed) - count(packetPopped) - count(packetRemoved) - count(packetDropped)"
attr title "queue length, timeavg"
scalar XHost_SpineLeaf_Network.spine[0].eth[3].mac.queue packetPushed:count 172
attr interpolationmode none
attr title "packet pushed, count"
scalar XHost_SpineLeaf_Network.spine[0].eth[3].mac.queue packetPushed:sum(packetBytes) 55528
attr interpolationmode none
attr title "packet pushed, sum(packetBytes)"
scalar XHost_SpineLeaf_Network.spine[0].eth[3].mac.queue packetDropQueueOverflow:count 1
attr interpolationmode none
attr source packetDropReasonIsQueueOverflow(packetDropped)
attr title "packet drops: queue overflow, count"
scalar XHost_SpineLeaf_Network.spine[0].eth[3].mac.queue packetDropQueueOverflow:sum(packetBytes) 64
attr interpolationmode none
attr source packetDropReasonIsQueueOverflow(packetDropped)
attr title "packet drops: queue overflow, sum(packetBytes)"
scalar XHost_SpineLeaf_Network.spine[0].eth[3].mac.queue packetRemoved:count 0
attr interpolationmode none
attr title "packets removed, count"
scalar XHost_SpineLeaf_Network.spine[0].eth[3].mac.queue packetRemoved:sum(packetBytes) 0
attr interpolationmode none
attr title "packets removed, sum(packetBytes)"
scalar XHost_SpineLeaf_Network.spine[0].eth[3].mac "simulated time" 285.64930713582
scalar XHost_SpineLeaf_Network.spine[0].eth[3].mac full-duplex 1
scalar XHost_SpineLeaf_Network.spine[0].eth[3].mac "frames/sec sent" 0.59863614483999
scalar XHost_SpineLeaf_Network.spine[0].eth[3].mac "frames/sec rcvd" 0.5356218138042
scalar XHost_SpineLeaf_Network.spine[0].eth[3].mac "bits/sec sent" 1553.3452695862
scalar XHost_SpineLeaf_Network.spine[0].eth[3].mac "bits/sec rcvd" 1438.0990597141
scalar XHost_SpineLeaf_Network.spine[0].eth[3].mac "rx channel idle (%)" 100
scalar XHost_SpineLeaf_Network.spine[0].eth[3].mac "rx channel utilization (%)" 0
scalar XHost_SpineLeaf_Network.spine[0].eth[3].mac txPk:count 171
attr interpolationmode none
attr source packetSentToLower
attr title "packets transmitted, count"
scalar XHost_SpineLeaf_Network.spine[0].eth[3].mac txPk:sum(packetBytes) 55464
attr interpolationmode none
attr source packetSentToLower
attr title "packets transmitted, sum(packetBytes)"
scalar XHost_SpineLeaf_Network.spine[0].eth[3].mac packetReceivedFromUpper:count 172
attr interpolationmode none
attr source packetReceivedFromUpper
attr title "packet bytes from higher layer, count"
scalar XHost_SpineLeaf_Network.spine[0].eth[3].mac packetReceivedFromUpper:sum(packetBytes) 54988
attr interpolationmode none
attr source packetReceivedFromUpper
attr title "packet bytes from higher layer, sum(packetBytes)"
scalar XHost_SpineLeaf_Network.spine[0].eth[3].mac passedUpPk:count 153
attr interpolationmode none
attr source packetSentToUpper
attr title "packets passed to higher layer, count"
scalar XHost_SpineLeaf_Network.spine[0].eth[3].mac passedUpPk:sum(packetBytes) 51349
attr interpolationmode none
attr source packetSentToUpper
attr title "packets passed to higher layer, sum(packetBytes)"
scalar XHost_SpineLeaf_Network.spine[0].eth[3].mac packetDropIncorrectlyReceived:count 0
attr interpolationmode none
attr source packetDropReasonIsIncorrectlyReceived(packetDropped)
attr title "packet drop: incorrectly received, count"
scalar XHost_SpineLeaf_Network.spine[0].eth[3].mac packetDropIncorrectlyReceived:sum(packetBytes) 0
attr interpolationmode none
attr source packetDropReasonIsIncorrectlyReceived(packetDropped)
attr title "packet drop: incorrectly received, sum(packetBytes)"
scalar XHost_SpineLeaf_Network.spine[0].eth[3].mac packetDropInterfaceDown:count 0
attr interpolationmode none
attr source packetDropReasonIsInterfaceDown(packetDropped)
attr title "packet drop: interface down, count"
scalar XHost_SpineLeaf_Network.spine[0].eth[3].mac packetDropInterfaceDown:sum(packetBytes) 0
attr interpolationmode none
attr source packetDropReasonIsInterfaceDown(packetDropped)
attr title "packet drop: interface down, sum(packetBytes)"
scalar XHost_SpineLeaf_Network.spine[0].eth[3].mac packetDropNotAddressedToUs:count 0
attr interpolationmode none
attr source packetDropReasonIsNotAddressedToUs(packetDropped)
attr title "packet drop: not addressed to us, count"
scalar XHost_SpineLeaf_Network.spine[0].eth[3].mac packetDropNotAddressedToUs:sum(packetBytes) 0
attr interpolationmode none
attr source packetDropReasonIsNotAddressedToUs(packetDropped)
attr title "packet drop: not addressed to us, sum(packetBytes)"
scalar XHost_SpineLeaf_Network.spine[0].eth[3].mac rxPausePkUnits:count 0
attr interpolationmode none
attr title "pause units received, count"
scalar XHost_SpineLeaf_Network.spine[0].eth[3].mac rxPausePkUnits:sum 0
attr interpolationmode none
attr title "pause units received, sum"
scalar XHost_SpineLeaf_Network.spine[0].eth[3].mac txPausePkUnits:count 0
attr interpolationmode none
attr title "pause units sent, count"
scalar XHost_SpineLeaf_Network.spine[0].eth[3].mac txPausePkUnits:sum 0
attr interpolationmode none
attr title "pause units sent, sum"
scalar XHost_SpineLeaf_Network.spine[0].eth[3].mac rxPkOk:count 153
attr interpolationmode none
attr source rxPkOk
attr title "packets received OK, count"
scalar XHost_SpineLeaf_Network.spine[0].eth[3].mac rxPkOk:sum(packetBytes) 51349
attr interpolationmode none
attr source rxPkOk
attr title "packets received OK, sum(packetBytes)"
scalar XHost_SpineLeaf_Network.spine[0].eth[3].encap pauseSent:count 0
attr title "pause sent, count"
scalar XHost_SpineLeaf_Network.spine[0].eth[3].encap pauseSent:sum 0
attr title "pause sent, sum"
scalar XHost_SpineLeaf_Network.spine[0].eth[3].encap decapPk:count 153
attr interpolationmode none
attr source decapPk
attr title "packets decapsulated, count"
scalar XHost_SpineLeaf_Network.spine[0].eth[3].encap decapPk:sum(packetBytes) 48595
attr interpolationmode none
attr source decapPk
attr title "packets decapsulated, sum(packetBytes)"
scalar XHost_SpineLeaf_Network.spine[0].eth[3].encap encapPk:count 172
attr interpolationmode none
attr source encapPk
attr title "packets encapsulated, count"
scalar XHost_SpineLeaf_Network.spine[0].eth[3].encap encapPk:sum(packetBytes) 51892
attr interpolationmode none
attr source encapPk
attr title "packets encapsulated, sum(packetBytes)"
scalar XHost_SpineLeaf_Network.spine[0].eth[4].mac.queue packetPopped:count 144
attr interpolationmode none
attr title "packet popped, count"
scalar XHost_SpineLeaf_Network.spine[0].eth[4].mac.queue packetPopped:sum(packetBytes) 47906
attr interpolationmode none
attr title "packet popped, sum(packetBytes)"
statistic XHost_SpineLeaf_Network.spine[0].eth[4].mac.queue queueingTime:histogram
field count 144
field mean 1.6684722222222e-006
field stddev 7.2532793952279e-006
field min 0
field max 4.24e-005
field sum 0.00024026
field sqrsum 7.924106e-009
attr interpolationmode none
attr source queueingTime(packetPopped)
attr title "queueing times, histogram"
attr unit s
bin	-inf	0
bin	0	136
bin	1e-006	0
bin	2e-006	0
bin	3e-006	0
bin	4e-006	0
bin	5e-006	0
bin	6e-006	0
bin	7e-006	0
bin	8e-006	0
bin	9e-006	0
bin	1e-005	0
bin	1.1e-005	0
bin	1.2e-005	0
bin	1.3e-005	0
bin	1.4e-005	0
bin	1.5e-005	0
bin	1.6e-005	0
bin	1.7e-005	0
bin	1.8e-005	1
bin	1.9e-005	0
bin	2e-005	1
bin	2.1e-005	0
bin	2.2e-005	2
bin	2.3e-005	0
bin	2.4e-005	0
bin	2.5e-005	0
bin	2.6e-005	0
bin	2.7e-005	0
bin	2.8e-005	0
bin	2.9e-005	0
bin	3e-005	0
bin	3.1e-005	0
bin	3.2e-005	0
bin	3.3e-005	0
bin	3.4e-005	0
bin	3.5e-005	2
bin	3.6e-005	0
bin	3.7e-005	0
bin	3.8e-005	0
bin	3.9e-005	0
bin	4e-005	0
bin	4.1e-005	0
bin	4.2e-005	2
bin	4.3e-005	0
bin	4.4e-005	0
bin	4.5e-005	0
bin	4.6e-005	0
bin	4.7e-005	0
bin	4.8e-005	0
bin	4.9e-005	0
bin	5e-005	0
bin	5.1e-005	0
bin	5.2e-005	0
bin	5.3e-005	0
scalar XHost_SpineLeaf_Network.spine[0].eth[4].mac.queue queueLength:max 1
attr interpolationmode sample-hold
attr source "count(packetPushed) - count(packetPopped) - count(packetRemoved) - count(packetDropped)"
attr title "queue length, max"
scalar XHost_SpineLeaf_Network.spine[0].eth[4].mac.queue queueLength:timeavg 8.716150272142e-007
attr interpolationmode sample-hold
attr source "count(packetPushed) - count(packetPopped) - count(packetRemoved) - count(packetDropped)"
attr title "queue length, timeavg"
scalar XHost_SpineLeaf_Network.spine[0].eth[4].mac.queue packetPushed:count 144
attr interpolationmode none
attr title "packet pushed, count"
scalar XHost_SpineLeaf_Network.spine[0].eth[4].mac.queue packetPushed:sum(packetBytes) 47906
attr interpolationmode none
attr title "packet pushed, sum(packetBytes)"
scalar XHost_SpineLeaf_Network.spine[0].eth[4].mac.queue packetDropQueueOverflow:count 0
attr interpolationmode none
attr source packetDropReasonIsQueueOverflow(packetDropped)
attr title "packet drops: queue overflow, count"
scalar XHost_SpineLeaf_Network.spine[0].eth[4].mac.queue packetDropQueueOverflow:sum(packetBytes) 0
attr interpolationmode none
attr source packetDropReasonIsQueueOverflow(packetDropped)
attr title "packet drops: queue overflow, sum(packetBytes)"
scalar XHost_SpineLeaf_Network.spine[0].eth[4].mac.queue packetRemoved:count 0
attr interpolationmode none
attr title "packets removed, count"
scalar XHost_SpineLeaf_Network.spine[0].eth[4].mac.queue packetRemoved:sum(packetBytes) 0
attr interpolationmode none
attr title "packets removed, sum(packetBytes)"
scalar XHost_SpineLeaf_Network.spine[0].eth[4].mac "simulated time" 285.64930713582
scalar XHost_SpineLeaf_Network.spine[0].eth[4].mac full-duplex 1
scalar XHost_SpineLeaf_Network.spine[0].eth[4].mac "frames/sec sent" 0.50411464828631
scalar XHost_SpineLeaf_Network.spine[0].eth[4].mac "frames/sec rcvd" 0.52161862912958
scalar XHost_SpineLeaf_Network.spine[0].eth[4].mac "bits/sec sent" 1341.6731300447
scalar XHost_SpineLeaf_Network.spine[0].eth[4].mac "bits/sec rcvd" 1282.8317480419
scalar XHost_SpineLeaf_Network.spine[0].eth[4].mac "rx channel idle (%)" 100
scalar XHost_SpineLeaf_Network.spine[0].eth[4].mac "rx channel utilization (%)" 0
scalar XHost_SpineLeaf_Network.spine[0].eth[4].mac txPk:count 144
attr interpolationmode none
attr source packetSentToLower
attr title "packets transmitted, count"
scalar XHost_SpineLeaf_Network.spine[0].eth[4].mac txPk:sum(packetBytes) 47906
attr interpolationmode none
attr source packetSentToLower
attr title "packets transmitted, sum(packetBytes)"
scalar XHost_SpineLeaf_Network.spine[0].eth[4].mac packetReceivedFromUpper:count 144
attr interpolationmode none
attr source packetReceivedFromUpper
attr title "packet bytes from higher layer, count"
scalar XHost_SpineLeaf_Network.spine[0].eth[4].mac packetReceivedFromUpper:sum(packetBytes) 47468
attr interpolationmode none
attr source packetReceivedFromUpper
attr title "packet bytes from higher layer, sum(packetBytes)"
scalar XHost_SpineLeaf_Network.spine[0].eth[4].mac passedUpPk:count 149
attr interpolationmode none
attr source packetSentToUpper
attr title "packets passed to higher layer, count"
scalar XHost_SpineLeaf_Network.spine[0].eth[4].mac passedUpPk:sum(packetBytes) 45805
attr interpolationmode none
attr source packetSentToUpper
attr title "packets passed to higher layer, sum(packetBytes)"
scalar XHost_SpineLeaf_Network.spine[0].eth[4].mac packetDropIncorrectlyReceived:count 0
attr interpolationmode none
attr source packetDropReasonIsIncorrectlyReceived(packetDropped)
attr title "packet drop: incorrectly received, count"
scalar XHost_SpineLeaf_Network.spine[0].eth[4].mac packetDropIncorrectlyReceived:sum(packetBytes) 0
attr interpolationmode none
attr source packetDropReasonIsIncorrectlyReceived(packetDropped)
attr title "packet drop: incorrectly received, sum(packetBytes)"
scalar XHost_SpineLeaf_Network.spine[0].eth[4].mac packetDropInterfaceDown:count 0
attr interpolationmode none
attr source packetDropReasonIsInterfaceDown(packetDropped)
attr title "packet drop: interface down, count"
scalar XHost_SpineLeaf_Network.spine[0].eth[4].mac packetDropInterfaceDown:sum(packetBytes) 0
attr interpolationmode none
attr source packetDropReasonIsInterfaceDown(packetDropped)
attr title "packet drop: interface down, sum(packetBytes)"
scalar XHost_SpineLeaf_Network.spine[0].eth[4].mac packetDropNotAddressedToUs:count 0
attr interpolationmode none
attr source packetDropReasonIsNotAddressedToUs(packetDropped)
attr title "packet drop: not addressed to us, count"
scalar XHost_SpineLeaf_Network.spine[0].eth[4].mac packetDropNotAddressedToUs:sum(packetBytes) 0
attr interpolationmode none
attr source packetDropReasonIsNotAddressedToUs(packetDropped)
attr title "packet drop: not addressed to us, sum(packetBytes)"
scalar XHost_SpineLeaf_Network.spine[0].eth[4].mac rxPausePkUnits:count 0
attr interpolationmode none
attr title "pause units received, count"
scalar XHost_SpineLeaf_Network.spine[0].eth[4].mac rxPausePkUnits:sum 0
attr interpolationmode none
attr title "pause units received, sum"
scalar XHost_SpineLeaf_Network.spine[0].eth[4].mac txPausePkUnits:count 0
attr interpolationmode none
attr title "pause units sent, count"
scalar XHost_SpineLeaf_Network.spine[0].eth[4].mac txPausePkUnits:sum 0
attr interpolationmode none
attr title "pause units sent, sum"
scalar XHost_SpineLeaf_Network.spine[0].eth[4].mac rxPkOk:count 149
attr interpolationmode none
attr source rxPkOk
attr title "packets received OK, count"
scalar XHost_SpineLeaf_Network.spine[0].eth[4].mac rxPkOk:sum(packetBytes) 45805
attr interpolationmode none
attr source rxPkOk
attr title "packets received OK, sum(packetBytes)"
scalar XHost_SpineLeaf_Network.spine[0].eth[4].encap pauseSent:count 0
attr title "pause sent, count"
scalar XHost_SpineLeaf_Network.spine[0].eth[4].encap pauseSent:sum 0
attr title "pause sent, sum"
scalar XHost_SpineLeaf_Network.spine[0].eth[4].encap decapPk:count 149
attr interpolationmode none
attr source decapPk
attr title "packets decapsulated, count"
scalar XHost_SpineLeaf_Network.spine[0].eth[4].encap decapPk:sum(packetBytes) 43123
attr interpolationmode none
attr source decapPk
attr title "packets decapsulated, sum(packetBytes)"
scalar XHost_SpineLeaf_Network.spine[0].eth[4].encap encapPk:count 144
attr interpolationmode none
attr source encapPk
attr title "packets encapsulated, count"
scalar XHost_SpineLeaf_Network.spine[0].eth[4].encap encapPk:sum(packetBytes) 44876
attr interpolationmode none
attr source encapPk
attr title "packets encapsulated, sum(packetBytes)"
scalar XHost_SpineLeaf_Network.spine[0].eth[5].mac.queue packetPopped:count 152
attr interpolationmode none
attr title "packet popped, count"
scalar XHost_SpineLeaf_Network.spine[0].eth[5].mac.queue packetPopped:sum(packetBytes) 51630
attr interpolationmode none
attr title "packet popped, sum(packetBytes)"
statistic XHost_SpineLeaf_Network.spine[0].eth[5].mac.queue queueingTime:histogram
field count 152
field mean 1.6978947368421e-006
field stddev 6.9898163039064e-006
field min 0
field max 4.24e-005
field sum 0.00025808
field sqrsum 7.81568e-009
attr interpolationmode none
attr source queueingTime(packetPopped)
attr title "queueing times, histogram"
attr unit s
bin	-inf	0
bin	0	142
bin	1e-006	0
bin	2e-006	0
bin	3e-006	0
bin	4e-006	0
bin	5e-006	0
bin	6e-006	1
bin	7e-006	0
bin	8e-006	0
bin	9e-006	0
bin	1e-005	0
bin	1.1e-005	0
bin	1.2e-005	0
bin	1.3e-005	0
bin	1.4e-005	0
bin	1.5e-005	0
bin	1.6e-005	1
bin	1.7e-005	0
bin	1.8e-005	0
bin	1.9e-005	0
bin	2e-005	0
bin	2.1e-005	1
bin	2.2e-005	3
bin	2.3e-005	0
bin	2.4e-005	0
bin	2.5e-005	1
bin	2.6e-005	0
bin	2.7e-005	0
bin	2.8e-005	0
bin	2.9e-005	0
bin	3e-005	0
bin	3.1e-005	0
bin	3.2e-005	0
bin	3.3e-005	0
bin	3.4e-005	0
bin	3.5e-005	1
bin	3.6e-005	0
bin	3.7e-005	0
bin	3.8e-005	0
bin	3.9e-005	0
bin	4e-005	0
bin	4.1e-005	0
bin	4.2e-005	2
bin	4.3e-005	0
bin	4.4e-005	0
bin	4.5e-005	0
bin	4.6e-005	0
bin	4.7e-005	0
bin	4.8e-005	0
bin	4.9e-005	0
bin	5e-005	0
bin	5.1e-005	0
bin	5.2e-005	0
bin	5.3e-005	0
scalar XHost_SpineLeaf_Network.spine[0].eth[5].mac.queue queueLength:max 1
attr interpolationmode sample-hold
attr source "count(packetPushed) - count(packetPopped) - count(packetRemoved) - count(packetDropped)"
attr title "queue length, max"
scalar XHost_SpineLeaf_Network.spine[0].eth[5].mac.queue queueLength:timeavg 9.066595793526e-007
attr interpolationmode sample-hold
attr source "count(packetPushed) - count(packetPopped) - count(packetRemoved) - count(packetDropped)"
attr title "queue length, timeavg"
scalar XHost_SpineLeaf_Network.spine[0].eth[5].mac.queue packetPushed:count 152
attr interpolationmode none
attr title "packet pushed, count"
scalar XHost_SpineLeaf_Network.spine[0].eth[5].mac.queue packetPushed:sum(packetBytes) 51630
attr interpolationmode none
attr title "packet pushed, sum(packetBytes)"
scalar XHost_SpineLeaf_Network.spine[0].eth[5].mac.queue packetDropQueueOverflow:count 0
attr interpolationmode none
attr source packetDropReasonIsQueueOverflow(packetDropped)
attr title "packet drops: queue overflow, count"
scalar XHost_SpineLeaf_Network.spine[0].eth[5].mac.queue packetDropQueueOverflow:sum(packetBytes) 0
attr interpolationmode none
attr source packetDropReasonIsQueueOverflow(packetDropped)
attr title "packet drops: queue overflow, sum(packetBytes)"
scalar XHost_SpineLeaf_Network.spine[0].eth[5].mac.queue packetRemoved:count 0
attr interpolationmode none
attr title "packets removed, count"
scalar XHost_SpineLeaf_Network.spine[0].eth[5].mac.queue packetRemoved:sum(packetBytes) 0
attr interpolationmode none
attr title "packets removed, sum(packetBytes)"
scalar XHost_SpineLeaf_Network.spine[0].eth[5].mac "simulated time" 285.64930713582
scalar XHost_SpineLeaf_Network.spine[0].eth[5].mac full-duplex 1
scalar XHost_SpineLeaf_Network.spine[0].eth[5].mac "frames/sec sent" 0.53212101763555
scalar XHost_SpineLeaf_Network.spine[0].eth[5].mac "frames/sec rcvd" 0.59513534867134
scalar XHost_SpineLeaf_Network.spine[0].eth[5].mac "bits/sec sent" 1445.9688495012
scalar XHost_SpineLeaf_Network.spine[0].eth[5].mac "bits/sec rcvd" 1507.0227346826
scalar XHost_SpineLeaf_Network.spine[0].eth[5].mac "rx channel idle (%)" 100
scalar XHost_SpineLeaf_Network.spine[0].eth[5].mac "rx channel utilization (%)" 0
scalar XHost_SpineLeaf_Network.spine[0].eth[5].mac txPk:count 152
attr interpolationmode none
attr source packetSentToLower
attr title "packets transmitted, count"
scalar XHost_SpineLeaf_Network.spine[0].eth[5].mac txPk:sum(packetBytes) 51630
attr interpolationmode none
attr source packetSentToLower
attr title "packets transmitted, sum(packetBytes)"
scalar XHost_SpineLeaf_Network.spine[0].eth[5].mac packetReceivedFromUpper:count 152
attr interpolationmode none
attr source packetReceivedFromUpper
attr title "packet bytes from higher layer, count"
scalar XHost_SpineLeaf_Network.spine[0].eth[5].mac packetReceivedFromUpper:sum(packetBytes) 51190
attr interpolationmode none
attr source packetReceivedFromUpper
attr title "packet bytes from higher layer, sum(packetBytes)"
scalar XHost_SpineLeaf_Network.spine[0].eth[5].mac passedUpPk:count 170
attr interpolationmode none
attr source packetSentToUpper
attr title "packets passed to higher layer, count"
scalar XHost_SpineLeaf_Network.spine[0].eth[5].mac passedUpPk:sum(packetBytes) 53810
attr interpolationmode none
attr source packetSentToUpper
attr title "packets passed to higher layer, sum(packetBytes)"
scalar XHost_SpineLeaf_Network.spine[0].eth[5].mac packetDropIncorrectlyReceived:count 0
attr interpolationmode none
attr source packetDropReasonIsIncorrectlyReceived(packetDropped)
attr title "packet drop: incorrectly received, count"
scalar XHost_SpineLeaf_Network.spine[0].eth[5].mac packetDropIncorrectlyReceived:sum(packetBytes) 0
attr interpolationmode none
attr source packetDropReasonIsIncorrectlyReceived(packetDropped)
attr title "packet drop: incorrectly received, sum(packetBytes)"
scalar XHost_SpineLeaf_Network.spine[0].eth[5].mac packetDropInterfaceDown:count 0
attr interpolationmode none
attr source packetDropReasonIsInterfaceDown(packetDropped)
attr title "packet drop: interface down, count"
scalar XHost_SpineLeaf_Network.spine[0].eth[5].mac packetDropInterfaceDown:sum(packetBytes) 0
attr interpolationmode none
attr source packetDropReasonIsInterfaceDown(packetDropped)
attr title "packet drop: interface down, sum(packetBytes)"
scalar XHost_SpineLeaf_Network.spine[0].eth[5].mac packetDropNotAddressedToUs:count 0
attr interpolationmode none
attr source packetDropReasonIsNotAddressedToUs(packetDropped)
attr title "packet drop: not addressed to us, count"
scalar XHost_SpineLeaf_Network.spine[0].eth[5].mac packetDropNotAddressedToUs:sum(packetBytes) 0
attr interpolationmode none
attr source packetDropReasonIsNotAddressedToUs(packetDropped)
attr title "packet drop: not addressed to us, sum(packetBytes)"
scalar XHost_SpineLeaf_Network.spine[0].eth[5].mac rxPausePkUnits:count 0
attr interpolationmode none
attr title "pause units received, count"
scalar XHost_SpineLeaf_Network.spine[0].eth[5].mac rxPausePkUnits:sum 0
attr interpolationmode none
attr title "pause units received, sum"
scalar XHost_SpineLeaf_Network.spine[0].eth[5].mac txPausePkUnits:count 0
attr interpolationmode none
attr title "pause units sent, count"
scalar XHost_SpineLeaf_Network.spine[0].eth[5].mac txPausePkUnits:sum 0
attr interpolationmode none
attr title "pause units sent, sum"
scalar XHost_SpineLeaf_Network.spine[0].eth[5].mac rxPkOk:count 170
attr interpolationmode none
attr source rxPkOk
attr title "packets received OK, count"
scalar XHost_SpineLeaf_Network.spine[0].eth[5].mac rxPkOk:sum(packetBytes) 53810
attr interpolationmode none
attr source rxPkOk
attr title "packets received OK, sum(packetBytes)"
scalar XHost_SpineLeaf_Network.spine[0].eth[5].encap pauseSent:count 0
attr title "pause sent, count"
scalar XHost_SpineLeaf_Network.spine[0].eth[5].encap pauseSent:sum 0
attr title "pause sent, sum"
scalar XHost_SpineLeaf_Network.spine[0].eth[5].encap decapPk:count 170
attr interpolationmode none
attr source decapPk
attr title "packets decapsulated, count"
scalar XHost_SpineLeaf_Network.spine[0].eth[5].encap decapPk:sum(packetBytes) 50750
attr interpolationmode none
attr source decapPk
attr title "packets decapsulated, sum(packetBytes)"
scalar XHost_SpineLeaf_Network.spine[0].eth[5].encap encapPk:count 152
attr interpolationmode none
attr source encapPk
attr title "packets encapsulated, count"
scalar XHost_SpineLeaf_Network.spine[0].eth[5].encap encapPk:sum(packetBytes) 48454
attr interpolationmode none
attr source encapPk
attr title "packets encapsulated, sum(packetBytes)"
scalar XHost_SpineLeaf_Network.spine[0].eth[6].mac.queue packetPopped:count 142
attr interpolationmode none
attr title "packet popped, count"
scalar XHost_SpineLeaf_Network.spine[0].eth[6].mac.queue packetPopped:sum(packetBytes) 45658
attr interpolationmode none
attr title "packet popped, sum(packetBytes)"
statistic XHost_SpineLeaf_Network.spine[0].eth[6].mac.queue queueingTime:histogram
field count 142
field mean 1.912676056338e-006
field stddev 7.7479787266239e-006
field min 0
field max 4.24e-005
field sum 0.0002716
field sqrsum 8.9838784e-009
attr interpolationmode none
attr source queueingTime(packetPopped)
attr title "queueing times, histogram"
attr unit s
bin	-inf	0
bin	0	132
bin	1e-006	0
bin	2e-006	0
bin	3e-006	0
bin	4e-006	0
bin	5e-006	0
bin	6e-006	1
bin	7e-006	0
bin	8e-006	0
bin	9e-006	0
bin	1e-005	0
bin	1.1e-005	0
bin	1.2e-005	0
bin	1.3e-005	2
bin	1.4e-005	0
bin	1.5e-005	0
bin	1.6e-005	0
bin	1.7e-005	0
bin	1.8e-005	0
bin	1.9e-005	0
bin	2e-005	0
bin	2.1e-005	0
bin	2.2e-005	2
bin	2.3e-005	0
bin	2.4e-005	0
bin	2.5e-005	0
bin	2.6e-005	0
bin	2.7e-005	0
bin	2.8e-005	0
bin	2.9e-005	1
bin	3e-005	0
bin	3.1e-005	0
bin	3.2e-005	0
bin	3.3e-005	0
bin	3.4e-005	0
bin	3.5e-005	1
bin	3.6e-005	0
bin	3.7e-005	0
bin	3.8e-005	0
bin	3.9e-005	0
bin	4e-005	0
bin	4.1e-005	0
bin	4.2e-005	3
bin	4.3e-005	0
bin	4.4e-005	0
bin	4.5e-005	0
bin	4.6e-005	0
bin	4.7e-005	0
bin	4.8e-005	0
bin	4.9e-005	0
bin	5e-005	0
bin	5.1e-005	0
bin	5.2e-005	0
bin	5.3e-005	0
scalar XHost_SpineLeaf_Network.spine[0].eth[6].mac.queue queueLength:max 1
attr interpolationmode sample-hold
attr source "count(packetPushed) - count(packetPopped) - count(packetRemoved) - count(packetDropped)"
attr title "queue length, max"
scalar XHost_SpineLeaf_Network.spine[0].eth[6].mac.queue queueLength:timeavg 9.853099732824e-007
attr interpolationmode sample-hold
attr source "count(packetPushed) - count(packetPopped) - count(packetRemoved) - count(packetDropped)"
attr title "queue length, timeavg"
scalar XHost_SpineLeaf_Network.spine[0].eth[6].mac.queue packetPushed:count 142
attr interpolationmode none
attr title "packet pushed, count"
scalar XHost_SpineLeaf_Network.spine[0].eth[6].mac.queue packetPushed:sum(packetBytes) 45658
attr interpolationmode none
attr title "packet pushed, sum(packetBytes)"
scalar XHost_SpineLeaf_Network.spine[0].eth[6].mac.queue packetDropQueueOverflow:count 0
attr interpolationmode none
attr source packetDropReasonIsQueueOverflow(packetDropped)
attr title "packet drops: queue overflow, count"
scalar XHost_SpineLeaf_Network.spine[0].eth[6].mac.queue packetDropQueueOverflow:sum(packetBytes) 0
attr interpolationmode none
attr source packetDropReasonIsQueueOverflow(packetDropped)
attr title "packet drops: queue overflow, sum(packetBytes)"
scalar XHost_SpineLeaf_Network.spine[0].eth[6].mac.queue packetRemoved:count 0
attr interpolationmode none
attr title "packets removed, count"
scalar XHost_SpineLeaf_Network.spine[0].eth[6].mac.queue packetRemoved:sum(packetBytes) 0
attr interpolationmode none
attr title "packets removed, sum(packetBytes)"
scalar XHost_SpineLeaf_Network.spine[0].eth[6].mac "simulated time" 285.64930713582
scalar XHost_SpineLeaf_Network.spine[0].eth[6].mac full-duplex 1
scalar XHost_SpineLeaf_Network.spine[0].eth[6].mac "frames/sec sent" 0.497113055949
scalar XHost_SpineLeaf_Network.spine[0].eth[6].mac "frames/sec rcvd" 0.53912260997286
scalar XHost_SpineLeaf_Network.spine[0].eth[6].mac "bits/sec sent" 1278.7148117476
scalar XHost_SpineLeaf_Network.spine[0].eth[6].mac "bits/sec rcvd" 1293.7262257188
scalar XHost_SpineLeaf_Network.spine[0].eth[6].mac "rx channel idle (%)" 100
scalar XHost_SpineLeaf_Network.spine[0].eth[6].mac "rx channel utilization (%)" 0
scalar XHost_SpineLeaf_Network.spine[0].eth[6].mac txPk:count 142
attr interpolationmode none
attr source packetSentToLower
attr title "packets transmitted, count"
scalar XHost_SpineLeaf_Network.spine[0].eth[6].mac txPk:sum(packetBytes) 45658
attr interpolationmode none
attr source packetSentToLower
attr title "packets transmitted, sum(packetBytes)"
scalar XHost_SpineLeaf_Network.spine[0].eth[6].mac packetReceivedFromUpper:count 142
attr interpolationmode none
attr source packetReceivedFromUpper
attr title "packet bytes from higher layer, count"
scalar XHost_SpineLeaf_Network.spine[0].eth[6].mac packetReceivedFromUpper:sum(packetBytes) 45208
attr interpolationmode none
attr source packetReceivedFromUpper
attr title "packet bytes from higher layer, sum(packetBytes)"
scalar XHost_SpineLeaf_Network.spine[0].eth[6].mac passedUpPk:count 154
attr interpolationmode none
attr source packetSentToUpper
attr title "packets passed to higher layer, count"
scalar XHost_SpineLeaf_Network.spine[0].eth[6].mac passedUpPk:sum(packetBytes) 46194
attr interpolationmode none
attr source packetSentToUpper
attr title "packets passed to higher layer, sum(packetBytes)"
scalar XHost_SpineLeaf_Network.spine[0].eth[6].mac packetDropIncorrectlyReceived:count 0
attr interpolationmode none
attr source packetDropReasonIsIncorrectlyReceived(packetDropped)
attr title "packet drop: incorrectly received, count"
scalar XHost_SpineLeaf_Network.spine[0].eth[6].mac packetDropIncorrectlyReceived:sum(packetBytes) 0
attr interpolationmode none
attr source packetDropReasonIsIncorrectlyReceived(packetDropped)
attr title "packet drop: incorrectly received, sum(packetBytes)"
scalar XHost_SpineLeaf_Network.spine[0].eth[6].mac packetDropInterfaceDown:count 0
attr interpolationmode none
attr source packetDropReasonIsInterfaceDown(packetDropped)
attr title "packet drop: interface down, count"
scalar XHost_SpineLeaf_Network.spine[0].eth[6].mac packetDropInterfaceDown:sum(packetBytes) 0
attr interpolationmode none
attr source packetDropReasonIsInterfaceDown(packetDropped)
attr title "packet drop: interface down, sum(packetBytes)"
scalar XHost_SpineLeaf_Network.spine[0].eth[6].mac packetDropNotAddressedToUs:count 0
attr interpolationmode none
attr source packetDropReasonIsNotAddressedToUs(packetDropped)
attr title "packet drop: not addressed to us, count"
scalar XHost_SpineLeaf_Network.spine[0].eth[6].mac packetDropNotAddressedToUs:sum(packetBytes) 0
attr interpolationmode none
attr source packetDropReasonIsNotAddressedToUs(packetDropped)
attr title "packet drop: not addressed to us, sum(packetBytes)"
scalar XHost_SpineLeaf_Network.spine[0].eth[6].mac rxPausePkUnits:count 0
attr interpolationmode none
attr title "pause units received, count"
scalar XHost_SpineLeaf_Network.spine[0].eth[6].mac rxPausePkUnits:sum 0
attr interpolationmode none
attr title "pause units received, sum"
scalar XHost_SpineLeaf_Network.spine[0].eth[6].mac txPausePkUnits:count 0
attr interpolationmode none
attr title "pause units sent, count"
scalar XHost_SpineLeaf_Network.spine[0].eth[6].mac txPausePkUnits:sum 0
attr interpolationmode none
attr title "pause units sent, sum"
scalar XHost_SpineLeaf_Network.spine[0].eth[6].mac rxPkOk:count 154
attr interpolationmode none
attr source rxPkOk
attr title "packets received OK, count"
scalar XHost_SpineLeaf_Network.spine[0].eth[6].mac rxPkOk:sum(packetBytes) 46194
attr interpolationmode none
attr source rxPkOk
attr title "packets received OK, sum(packetBytes)"
scalar XHost_SpineLeaf_Network.spine[0].eth[6].encap pauseSent:count 0
attr title "pause sent, count"
scalar XHost_SpineLeaf_Network.spine[0].eth[6].encap pauseSent:sum 0
attr title "pause sent, sum"
scalar XHost_SpineLeaf_Network.spine[0].eth[6].encap decapPk:count 154
attr interpolationmode none
attr source decapPk
attr title "packets decapsulated, count"
scalar XHost_SpineLeaf_Network.spine[0].eth[6].encap decapPk:sum(packetBytes) 43422
attr interpolationmode none
attr source decapPk
attr title "packets decapsulated, sum(packetBytes)"
scalar XHost_SpineLeaf_Network.spine[0].eth[6].encap encapPk:count 142
attr interpolationmode none
attr source encapPk
attr title "packets encapsulated, count"
scalar XHost_SpineLeaf_Network.spine[0].eth[6].encap encapPk:sum(packetBytes) 42652
attr interpolationmode none
attr source encapPk
attr title "packets encapsulated, sum(packetBytes)"
scalar XHost_SpineLeaf_Network.spine[0].eth[7].mac.queue packetPopped:count 141
attr interpolationmode none
attr title "packet popped, count"
scalar XHost_SpineLeaf_Network.spine[0].eth[7].mac.queue packetPopped:sum(packetBytes) 46654
attr interpolationmode none
attr title "packet popped, sum(packetBytes)"
statistic XHost_SpineLeaf_Network.spine[0].eth[7].mac.queue queueingTime:histogram
field count 141
field mean 1.1591489361702e-006
field stddev 6.4941194816499e-006
field min 0
field max 4.24e-005
field sum 0.00016344
field sqrsum 6.0937536e-009
attr interpolationmode none
attr source queueingTime(packetPopped)
attr title "queueing times, histogram"
attr unit s
bin	-inf	0
bin	0	136
bin	5e-007	0
bin	1e-006	0
bin	1.5e-006	0
bin	2e-006	0
bin	2.5e-006	0
bin	3e-006	0
bin	3.5e-006	0
bin	4e-006	0
bin	4.5e-006	0
bin	5e-006	0
bin	5.5e-006	0
bin	6e-006	0
bin	6.5e-006	0
bin	7e-006	0
bin	7.5e-006	0
bin	8e-006	0
bin	8.5e-006	0
bin	9e-006	0
bin	9.5e-006	0
bin	1e-005	0
bin	1.05e-005	0
bin	1.1e-005	0
bin	1.15e-005	0
bin	1.2e-005	0
bin	1.25e-005	0
bin	1.3e-005	1
bin	1.35e-005	0
bin	1.4e-005	0
bin	1.45e-005	0
bin	1.5e-005	0
bin	1.55e-005	0
bin	1.6e-005	0
bin	1.65e-005	0
bin	1.7e-005	0
bin	1.75e-005	0
bin	1.8e-005	0
bin	1.85e-005	0
bin	1.9e-005	0
bin	1.95e-005	0
bin	2e-005	0
bin	2.05e-005	0
bin	2.1e-005	0
bin	2.15e-005	0
bin	2.2e-005	0
bin	2.25e-005	1
bin	2.3e-005	0
bin	2.35e-005	0
bin	2.4e-005	0
bin	2.45e-005	0
bin	2.5e-005	0
bin	2.55e-005	0
bin	2.6e-005	0
bin	2.65e-005	0
bin	2.7e-005	0
bin	2.75e-005	0
bin	2.8e-005	0
bin	2.85e-005	0
bin	2.9e-005	0
bin	2.95e-005	0
bin	3e-005	0
bin	3.05e-005	0
bin	3.1e-005	0
bin	3.15e-005	0
bin	3.2e-005	0
bin	3.25e-005	0
bin	3.3e-005	0
bin	3.35e-005	0
bin	3.4e-005	0
bin	3.45e-005	0
bin	3.5e-005	0
bin	3.55e-005	0
bin	3.6e-005	0
bin	3.65e-005	0
bin	3.7e-005	0
bin	3.75e-005	0
bin	3.8e-005	0
bin	3.85e-005	0
bin	3.9e-005	0
bin	3.95e-005	0
bin	4e-005	0
bin	4.05e-005	0
bin	4.1e-005	0
bin	4.15e-005	0
bin	4.2e-005	3
bin	4.25e-005	0
scalar XHost_SpineLeaf_Network.spine[0].eth[7].mac.queue queueLength:max 2
attr interpolationmode sample-hold
attr source "count(packetPushed) - count(packetPopped) - count(packetRemoved) - count(packetDropped)"
attr title "queue length, max"
scalar XHost_SpineLeaf_Network.spine[0].eth[7].mac.queue queueLength:timeavg 5.7418026057575e-007
attr interpolationmode sample-hold
attr source "count(packetPushed) - count(packetPopped) - count(packetRemoved) - count(packetDropped)"
attr title "queue length, timeavg"
scalar XHost_SpineLeaf_Network.spine[0].eth[7].mac.queue packetPushed:count 142
attr interpolationmode none
attr title "packet pushed, count"
scalar XHost_SpineLeaf_Network.spine[0].eth[7].mac.queue packetPushed:sum(packetBytes) 46718
attr interpolationmode none
attr title "packet pushed, sum(packetBytes)"
scalar XHost_SpineLeaf_Network.spine[0].eth[7].mac.queue packetDropQueueOverflow:count 1
attr interpolationmode none
attr source packetDropReasonIsQueueOverflow(packetDropped)
attr title "packet drops: queue overflow, count"
scalar XHost_SpineLeaf_Network.spine[0].eth[7].mac.queue packetDropQueueOverflow:sum(packetBytes) 64
attr interpolationmode none
attr source packetDropReasonIsQueueOverflow(packetDropped)
attr title "packet drops: queue overflow, sum(packetBytes)"
scalar XHost_SpineLeaf_Network.spine[0].eth[7].mac.queue packetRemoved:count 0
attr interpolationmode none
attr title "packets removed, count"
scalar XHost_SpineLeaf_Network.spine[0].eth[7].mac.queue packetRemoved:sum(packetBytes) 0
attr interpolationmode none
attr title "packets removed, sum(packetBytes)"
scalar XHost_SpineLeaf_Network.spine[0].eth[7].mac "simulated time" 285.64930713582
scalar XHost_SpineLeaf_Network.spine[0].eth[7].mac full-duplex 1
scalar XHost_SpineLeaf_Network.spine[0].eth[7].mac "frames/sec sent" 0.49361225978035
scalar XHost_SpineLeaf_Network.spine[0].eth[7].mac "frames/sec rcvd" 0.54262340614151
scalar XHost_SpineLeaf_Network.spine[0].eth[7].mac "bits/sec sent" 1306.6091556194
scalar XHost_SpineLeaf_Network.spine[0].eth[7].mac "bits/sec rcvd" 1433.3379769247
scalar XHost_SpineLeaf_Network.spine[0].eth[7].mac "rx channel idle (%)" 100
scalar XHost_SpineLeaf_Network.spine[0].eth[7].mac "rx channel utilization (%)" 0
scalar XHost_SpineLeaf_Network.spine[0].eth[7].mac txPk:count 141
attr interpolationmode none
attr source packetSentToLower
attr title "packets transmitted, count"
scalar XHost_SpineLeaf_Network.spine[0].eth[7].mac txPk:sum(packetBytes) 46654
attr interpolationmode none
attr source packetSentToLower
attr title "packets transmitted, sum(packetBytes)"
scalar XHost_SpineLeaf_Network.spine[0].eth[7].mac packetReceivedFromUpper:count 142
attr interpolationmode none
attr source packetReceivedFromUpper
attr title "packet bytes from higher layer, count"
scalar XHost_SpineLeaf_Network.spine[0].eth[7].mac packetReceivedFromUpper:sum(packetBytes) 46280
attr interpolationmode none
attr source packetReceivedFromUpper
attr title "packet bytes from higher layer, sum(packetBytes)"
scalar XHost_SpineLeaf_Network.spine[0].eth[7].mac passedUpPk:count 155
attr interpolationmode none
attr source packetSentToUpper
attr title "packets passed to higher layer, count"
scalar XHost_SpineLeaf_Network.spine[0].eth[7].mac passedUpPk:sum(packetBytes) 51179
attr interpolationmode none
attr source packetSentToUpper
attr title "packets passed to higher layer, sum(packetBytes)"
scalar XHost_SpineLeaf_Network.spine[0].eth[7].mac packetDropIncorrectlyReceived:count 0
attr interpolationmode none
attr source packetDropReasonIsIncorrectlyReceived(packetDropped)
attr title "packet drop: incorrectly received, count"
scalar XHost_SpineLeaf_Network.spine[0].eth[7].mac packetDropIncorrectlyReceived:sum(packetBytes) 0
attr interpolationmode none
attr source packetDropReasonIsIncorrectlyReceived(packetDropped)
attr title "packet drop: incorrectly received, sum(packetBytes)"
scalar XHost_SpineLeaf_Network.spine[0].eth[7].mac packetDropInterfaceDown:count 0
attr interpolationmode none
attr source packetDropReasonIsInterfaceDown(packetDropped)
attr title "packet drop: interface down, count"
scalar XHost_SpineLeaf_Network.spine[0].eth[7].mac packetDropInterfaceDown:sum(packetBytes) 0
attr interpolationmode none
attr source packetDropReasonIsInterfaceDown(packetDropped)
attr title "packet drop: interface down, sum(packetBytes)"
scalar XHost_SpineLeaf_Network.spine[0].eth[7].mac packetDropNotAddressedToUs:count 0
attr interpolationmode none
attr source packetDropReasonIsNotAddressedToUs(packetDropped)
attr title "packet drop: not addressed to us, count"
scalar XHost_SpineLeaf_Network.spine[0].eth[7].mac packetDropNotAddressedToUs:sum(packetBytes) 0
attr interpolationmode none
attr source packetDropReasonIsNotAddressedToUs(packetDropped)
attr title "packet drop: not addressed to us, sum(packetBytes)"
scalar XHost_SpineLeaf_Network.spine[0].eth[7].mac rxPausePkUnits:count 0
attr interpolationmode none
attr title "pause units received, count"
scalar XHost_SpineLeaf_Network.spine[0].eth[7].mac rxPausePkUnits:sum 0
attr interpolationmode none
attr title "pause units received, sum"
scalar XHost_SpineLeaf_Network.spine[0].eth[7].mac txPausePkUnits:count 0
attr interpolationmode none
attr title "pause units sent, count"
scalar XHost_SpineLeaf_Network.spine[0].eth[7].mac txPausePkUnits:sum 0
attr interpolationmode none
attr title "pause units sent, sum"
scalar XHost_SpineLeaf_Network.spine[0].eth[7].mac rxPkOk:count 155
attr interpolationmode none
attr source rxPkOk
attr title "packets received OK, count"
scalar XHost_SpineLeaf_Network.spine[0].eth[7].mac rxPkOk:sum(packetBytes) 51179
attr interpolationmode none
attr source rxPkOk
attr title "packets received OK, sum(packetBytes)"
scalar XHost_SpineLeaf_Network.spine[0].eth[7].encap pauseSent:count 0
attr title "pause sent, count"
scalar XHost_SpineLeaf_Network.spine[0].eth[7].encap pauseSent:sum 0
attr title "pause sent, sum"
scalar XHost_SpineLeaf_Network.spine[0].eth[7].encap decapPk:count 155
attr interpolationmode none
attr source decapPk
attr title "packets decapsulated, count"
scalar XHost_SpineLeaf_Network.spine[0].eth[7].encap decapPk:sum(packetBytes) 48389
attr interpolationmode none
attr source decapPk
attr title "packets decapsulated, sum(packetBytes)"
scalar XHost_SpineLeaf_Network.spine[0].eth[7].encap encapPk:count 142
attr interpolationmode none
attr source encapPk
attr title "packets encapsulated, count"
scalar XHost_SpineLeaf_Network.spine[0].eth[7].encap encapPk:sum(packetBytes) 43724
attr interpolationmode none
attr source encapPk
attr title "packets encapsulated, sum(packetBytes)"
scalar XHost_SpineLeaf_Network.spine[0].eth[8].mac.queue packetPopped:count 148
attr interpolationmode none
attr title "packet popped, count"
scalar XHost_SpineLeaf_Network.spine[0].eth[8].mac.queue packetPopped:sum(packetBytes) 50348
attr interpolationmode none
attr title "packet popped, sum(packetBytes)"
statistic XHost_SpineLeaf_Network.spine[0].eth[8].mac.queue queueingTime:histogram
field count 148
field mean 2.2718918918919e-006
field stddev 9.0271426952239e-006
field min 0
field max 4.24e-005
field sum 0.00033624
field sqrsum 1.27428288e-008
attr interpolationmode none
attr source queueingTime(packetPopped)
attr title "queueing times, histogram"
attr unit s
bin	-inf	0
bin	0	138
bin	1e-006	0
bin	2e-006	0
bin	3e-006	0
bin	4e-006	0
bin	5e-006	0
bin	6e-006	1
bin	7e-006	0
bin	8e-006	0
bin	9e-006	0
bin	1e-005	0
bin	1.1e-005	0
bin	1.2e-005	0
bin	1.3e-005	0
bin	1.4e-005	0
bin	1.5e-005	0
bin	1.6e-005	0
bin	1.7e-005	0
bin	1.8e-005	0
bin	1.9e-005	0
bin	2e-005	0
bin	2.1e-005	0
bin	2.2e-005	2
bin	2.3e-005	0
bin	2.4e-005	0
bin	2.5e-005	0
bin	2.6e-005	0
bin	2.7e-005	0
bin	2.8e-005	0
bin	2.9e-005	1
bin	3e-005	0
bin	3.1e-005	0
bin	3.2e-005	0
bin	3.3e-005	0
bin	3.4e-005	0
bin	3.5e-005	0
bin	3.6e-005	0
bin	3.7e-005	0
bin	3.8e-005	0
bin	3.9e-005	0
bin	4e-005	0
bin	4.1e-005	0
bin	4.2e-005	6
bin	4.3e-005	0
bin	4.4e-005	0
bin	4.5e-005	0
bin	4.6e-005	0
bin	4.7e-005	0
bin	4.8e-005	0
bin	4.9e-005	0
bin	5e-005	0
bin	5.1e-005	0
bin	5.2e-005	0
bin	5.3e-005	0
scalar XHost_SpineLeaf_Network.spine[0].eth[8].mac.queue queueLength:max 1
attr interpolationmode sample-hold
attr source "count(packetPushed) - count(packetPopped) - count(packetRemoved) - count(packetDropped)"
attr title "queue length, max"
scalar XHost_SpineLeaf_Network.spine[0].eth[8].mac.queue queueLength:timeavg 1.1938256456623e-006
attr interpolationmode sample-hold
attr source "count(packetPushed) - count(packetPopped) - count(packetRemoved) - count(packetDropped)"
attr title "queue length, timeavg"
scalar XHost_SpineLeaf_Network.spine[0].eth[8].mac.queue packetPushed:count 148
attr interpolationmode none
attr title "packet pushed, count"
scalar XHost_SpineLeaf_Network.spine[0].eth[8].mac.queue packetPushed:sum(packetBytes) 50348
attr interpolationmode none
attr title "packet pushed, sum(packetBytes)"
scalar XHost_SpineLeaf_Network.spine[0].eth[8].mac.queue packetDropQueueOverflow:count 0
attr interpolationmode none
attr source packetDropReasonIsQueueOverflow(packetDropped)
attr title "packet drops: queue overflow, count"
scalar XHost_SpineLeaf_Network.spine[0].eth[8].mac.queue packetDropQueueOverflow:sum(packetBytes) 0
attr interpolationmode none
attr source packetDropReasonIsQueueOverflow(packetDropped)
attr title "packet drops: queue overflow, sum(packetBytes)"
scalar XHost_SpineLeaf_Network.spine[0].eth[8].mac.queue packetRemoved:count 0
attr interpolationmode none
attr title "packets removed, count"
scalar XHost_SpineLeaf_Network.spine[0].eth[8].mac.queue packetRemoved:sum(packetBytes) 0
attr interpolationmode none
attr title "packets removed, sum(packetBytes)"
scalar XHost_SpineLeaf_Network.spine[0].eth[8].mac "simulated time" 285.64930713582
scalar XHost_SpineLeaf_Network.spine[0].eth[8].mac full-duplex 1
scalar XHost_SpineLeaf_Network.spine[0].eth[8].mac "frames/sec sent" 0.51811783296093
scalar XHost_SpineLeaf_Network.spine[0].eth[8].mac "frames/sec rcvd" 0.54612420231017
scalar XHost_SpineLeaf_Network.spine[0].eth[8].mac "bits/sec sent" 1410.0646839955
scalar XHost_SpineLeaf_Network.spine[0].eth[8].mac "bits/sec rcvd" 1356.6845440159
scalar XHost_SpineLeaf_Network.spine[0].eth[8].mac "rx channel idle (%)" 100
scalar XHost_SpineLeaf_Network.spine[0].eth[8].mac "rx channel utilization (%)" 0
scalar XHost_SpineLeaf_Network.spine[0].eth[8].mac txPk:count 148
attr interpolationmode none
attr source packetSentToLower
attr title "packets transmitted, count"
scalar XHost_SpineLeaf_Network.spine[0].eth[8].mac txPk:sum(packetBytes) 50348
attr interpolationmode none
attr source packetSentToLower
attr title "packets transmitted, sum(packetBytes)"
scalar XHost_SpineLeaf_Network.spine[0].eth[8].mac packetReceivedFromUpper:count 148
attr interpolationmode none
attr source packetReceivedFromUpper
attr title "packet bytes from higher layer, count"
scalar XHost_SpineLeaf_Network.spine[0].eth[8].mac packetReceivedFromUpper:sum(packetBytes) 49916
attr interpolationmode none
attr source packetReceivedFromUpper
attr title "packet bytes from higher layer, sum(packetBytes)"
scalar XHost_SpineLeaf_Network.spine[0].eth[8].mac passedUpPk:count 156
attr interpolationmode none
attr source packetSentToUpper
attr title "packets passed to higher layer, count"
scalar XHost_SpineLeaf_Network.spine[0].eth[8].mac passedUpPk:sum(packetBytes) 48442
attr interpolationmode none
attr source packetSentToUpper
attr title "packets passed to higher layer, sum(packetBytes)"
scalar XHost_SpineLeaf_Network.spine[0].eth[8].mac packetDropIncorrectlyReceived:count 0
attr interpolationmode none
attr source packetDropReasonIsIncorrectlyReceived(packetDropped)
attr title "packet drop: incorrectly received, count"
scalar XHost_SpineLeaf_Network.spine[0].eth[8].mac packetDropIncorrectlyReceived:sum(packetBytes) 0
attr interpolationmode none
attr source packetDropReasonIsIncorrectlyReceived(packetDropped)
attr title "packet drop: incorrectly received, sum(packetBytes)"
scalar XHost_SpineLeaf_Network.spine[0].eth[8].mac packetDropInterfaceDown:count 0
attr interpolationmode none
attr source packetDropReasonIsInterfaceDown(packetDropped)
attr title "packet drop: interface down, count"
scalar XHost_SpineLeaf_Network.spine[0].eth[8].mac packetDropInterfaceDown:sum(packetBytes) 0
attr interpolationmode none
attr source packetDropReasonIsInterfaceDown(packetDropped)
attr title "packet drop: interface down, sum(packetBytes)"
scalar XHost_SpineLeaf_Network.spine[0].eth[8].mac packetDropNotAddressedToUs:count 0
attr interpolationmode none
attr source packetDropReasonIsNotAddressedToUs(packetDropped)
attr title "packet drop: not addressed to us, count"
scalar XHost_SpineLeaf_Network.spine[0].eth[8].mac packetDropNotAddressedToUs:sum(packetBytes) 0
attr interpolationmode none
attr source packetDropReasonIsNotAddressedToUs(packetDropped)
attr title "packet drop: not addressed to us, sum(packetBytes)"
scalar XHost_SpineLeaf_Network.spine[0].eth[8].mac rxPausePkUnits:count 0
attr interpolationmode none
attr title "pause units received, count"
scalar XHost_SpineLeaf_Network.spine[0].eth[8].mac rxPausePkUnits:sum 0
attr interpolationmode none
attr title "pause units received, sum"
scalar XHost_SpineLeaf_Network.spine[0].eth[8].mac txPausePkUnits:count 0
attr interpolationmode none
attr title "pause units sent, count"
scalar XHost_SpineLeaf_Network.spine[0].eth[8].mac txPausePkUnits:sum 0
attr interpolationmode none
attr title "pause units sent, sum"
scalar XHost_SpineLeaf_Network.spine[0].eth[8].mac rxPkOk:count 156
attr interpolationmode none
attr source rxPkOk
attr title "packets received OK, count"
scalar XHost_SpineLeaf_Network.spine[0].eth[8].mac rxPkOk:sum(packetBytes) 48442
attr interpolationmode none
attr source rxPkOk
attr title "packets received OK, sum(packetBytes)"
scalar XHost_SpineLeaf_Network.spine[0].eth[8].encap pauseSent:count 0
attr title "pause sent, count"
scalar XHost_SpineLeaf_Network.spine[0].eth[8].encap pauseSent:sum 0
attr title "pause sent, sum"
scalar XHost_SpineLeaf_Network.spine[0].eth[8].encap decapPk:count 156
attr interpolationmode none
attr source decapPk
attr title "packets decapsulated, count"
scalar XHost_SpineLeaf_Network.spine[0].eth[8].encap decapPk:sum(packetBytes) 45634
attr interpolationmode none
attr source decapPk
attr title "packets decapsulated, sum(packetBytes)"
scalar XHost_SpineLeaf_Network.spine[0].eth[8].encap encapPk:count 148
attr interpolationmode none
attr source encapPk
attr title "packets encapsulated, count"
scalar XHost_SpineLeaf_Network.spine[0].eth[8].encap encapPk:sum(packetBytes) 47252
attr interpolationmode none
attr source encapPk
attr title "packets encapsulated, sum(packetBytes)"
scalar XHost_SpineLeaf_Network.spine[0].ipv4.ip packetDropAddressResolutionFailed:count 0
attr interpolationmode none
attr source packetDropReasonIsAddressResolutionFailed(packetDropped)
attr title "packet drop: address resolution failed, count"
scalar XHost_SpineLeaf_Network.spine[0].ipv4.ip packetDropAddressResolutionFailed:sum(packetBytes) 0
attr interpolationmode none
attr source packetDropReasonIsAddressResolutionFailed(packetDropped)
attr title "packet drop: address resolution failed, sum(packetBytes)"
scalar XHost_SpineLeaf_Network.spine[0].ipv4.ip packetDropHopLimitReached:count 0
attr interpolationmode none
attr source packetDropReasonIsHopLimitReached(packetDropped)
attr title "packet drop: hop limit reached, count"
scalar XHost_SpineLeaf_Network.spine[0].ipv4.ip packetDropHopLimitReached:sum(packetBytes) 0
attr interpolationmode none
attr source packetDropReasonIsHopLimitReached(packetDropped)
attr title "packet drop: hop limit reached, sum(packetBytes)"
scalar XHost_SpineLeaf_Network.spine[0].ipv4.ip packetDropForwardingDisabled:count 0
attr interpolationmode none
attr source packetDropReasonIsForwardingDisabled(packetDropped)
attr title "packet drop: forwarding disabled, count"
scalar XHost_SpineLeaf_Network.spine[0].ipv4.ip packetDropForwardingDisabled:sum(packetBytes) 0
attr interpolationmode none
attr source packetDropReasonIsForwardingDisabled(packetDropped)
attr title "packet drop: forwarding disabled, sum(packetBytes)"
scalar XHost_SpineLeaf_Network.spine[0].ipv4.ip packetDropNoInterfaceFound:count 0
attr interpolationmode none
attr source packetDropReasonIsNoInterfaceFound(packetDropped)
attr title "packet drop: no interface found, count"
scalar XHost_SpineLeaf_Network.spine[0].ipv4.ip packetDropNoInterfaceFound:sum(packetBytes) 0
attr interpolationmode none
attr source packetDropReasonIsNoInterfaceFound(packetDropped)
attr title "packet drop: no interface found, sum(packetBytes)"
scalar XHost_SpineLeaf_Network.spine[0].ipv4.ip packetDropNoRouteFound:count 0
attr interpolationmode none
attr source packetDropReasonIsNoRouteFound(packetDropped)
attr title "packet drop: no route found, count"
scalar XHost_SpineLeaf_Network.spine[0].ipv4.ip packetDropNoRouteFound:sum(packetBytes) 0
attr interpolationmode none
attr source packetDropReasonIsNoRouteFound(packetDropped)
attr title "packet drop: no route found, sum(packetBytes)"
scalar XHost_SpineLeaf_Network.spine[0].ipv4.ip packetDropUndefined:count 0
attr interpolationmode none
attr source packetDropReasonIsUndefined(packetDropped)
attr title "packet drop: undefined, count"
scalar XHost_SpineLeaf_Network.spine[0].ipv4.ip packetDropUndefined:sum(packetBytes) 0
attr interpolationmode none
attr source packetDropReasonIsUndefined(packetDropped)
attr title "packet drop: undefined, sum(packetBytes)"
scalar XHost_SpineLeaf_Network.spine[0].ipv4.arp arpReplySent:count 24
attr source arpReplySent
attr title "ARP replies sent, count"
scalar XHost_SpineLeaf_Network.spine[0].ipv4.arp arpReplySent:sum(packetBytes) 672
attr source arpReplySent
attr title "ARP replies sent, sum(packetBytes)"
scalar XHost_SpineLeaf_Network.spine[0].ipv4.arp arpRequestSent:count 2
attr source arpRequestSent
attr title "ARP request sent, count"
scalar XHost_SpineLeaf_Network.spine[0].ipv4.arp arpRequestSent:sum(packetBytes) 56
attr source arpRequestSent
attr title "ARP request sent, sum(packetBytes)"
scalar XHost_SpineLeaf_Network.spine[0].ipv4.arp arpResolutionFailed:count 0
attr title "ARP failed resolutions, count"
scalar XHost_SpineLeaf_Network.spine[0].ipv4.arp arpResolutionCompleted:count 26
attr title "ARP completed resolutions, count"
scalar XHost_SpineLeaf_Network.spine[0].ipv4.arp arpResolutionInitiated:count 2
attr title "ARP initiated resolutions, count"
scalar XHost_SpineLeaf_Network.spine[1].lo[0].lo rcvdPkFromHl:count 0
attr interpolationmode none
attr source packetReceivedFromUpper
attr title "packets received from higher layer, count"
scalar XHost_SpineLeaf_Network.spine[1].lo[0].lo rcvdPkFromHl:sum(packetBytes) 0
attr interpolationmode none
[...]
field count 1235
field mean 8.4476113360324e-007
field stddev 5.5479996544475e-006
field min 0
field max 4.24e-005
field sum 0.00104328
field sqrsum 3.88642128e-008
attr interpolationmode none
attr source queueingTime(packetPopped)
attr title "queueing times, histogram"
attr unit s
bin	-inf	0
bin	0	1200
bin	1e-006	2
bin	2e-006	0
bin	3e-006	0
bin	4e-006	1
bin	5e-006	0
bin	6e-006	2
bin	7e-006	0
bin	8e-006	0
bin	9e-006	0
bin	1e-005	0
bin	1.1e-005	1
bin	1.2e-005	0
bin	1.3e-005	3
bin	1.4e-005	0
bin	1.5e-005	0
bin	1.6e-005	0
bin	1.7e-005	0
bin	1.8e-005	0
bin	1.9e-005	0
bin	2e-005	5
bin	2.1e-005	0
bin	2.2e-005	0
bin	2.3e-005	0
bin	2.4e-005	0
bin	2.5e-005	0
bin	2.6e-005	0
bin	2.7e-005	0
bin	2.8e-005	0
bin	2.9e-005	0
bin	3e-005	0
bin	3.1e-005	0
bin	3.2e-005	0
bin	3.3e-005	0
bin	3.4e-005	0
bin	3.5e-005	2
bin	3.6e-005	1
bin	3.7e-005	0
bin	3.8e-005	0
bin	3.9e-005	0
bin	4e-005	1
bin	4.1e-005	0
bin	4.2e-005	17
bin	4.3e-005	0
bin	4.4e-005	0
bin	4.5e-005	0
bin	4.6e-005	0
bin	4.7e-005	0
bin	4.8e-005	0
bin	4.9e-005	0
bin	5e-005	0
bin	5.1e-005	0
bin	5.2e-005	0
bin	5.3e-005	0
scalar XHost_SpineLeaf_Network.borderLeaf.eth[4].mac.queue queueLength:max 2
attr interpolationmode sample-hold
attr source "count(packetPushed) - count(packetPopped) - count(packetRemoved) - count(packetDropped)"
attr title "queue length, max"
scalar XHost_SpineLeaf_Network.borderLeaf.eth[4].mac.queue queueLength:timeavg 3.6651420639627e-006
attr interpolationmode sample-hold
attr source "count(packetPushed) - count(packetPopped) - count(packetRemoved) - count(packetDropped)"
attr title "queue length, timeavg"
scalar XHost_SpineLeaf_Network.borderLeaf.eth[4].mac.queue packetPushed:count 1236
attr interpolationmode none
attr title "packet pushed, count"
scalar XHost_SpineLeaf_Network.borderLeaf.eth[4].mac.queue packetPushed:sum(packetBytes) 397132
attr interpolationmode none
attr title "packet pushed, sum(packetBytes)"
scalar XHost_SpineLeaf_Network.borderLeaf.eth[4].mac.queue packetDropQueueOverflow:count 1
attr interpolationmode none
attr source packetDropReasonIsQueueOverflow(packetDropped)
attr title "packet drops: queue overflow, count"
scalar XHost_SpineLeaf_Network.borderLeaf.eth[4].mac.queue packetDropQueueOverflow:sum(packetBytes) 64
attr interpolationmode none
attr source packetDropReasonIsQueueOverflow(packetDropped)
attr title "packet drops: queue overflow, sum(packetBytes)"
scalar XHost_SpineLeaf_Network.borderLeaf.eth[4].mac.queue packetRemoved:count 0
attr interpolationmode none
attr title "packets removed, count"
scalar XHost_SpineLeaf_Network.borderLeaf.eth[4].mac.queue packetRemoved:sum(packetBytes) 0
attr interpolationmode none
attr title "packets removed, sum(packetBytes)"
scalar XHost_SpineLeaf_Network.borderLeaf.eth[4].mac "simulated time" 285.64930713582
scalar XHost_SpineLeaf_Network.borderLeaf.eth[4].mac full-duplex 1
scalar XHost_SpineLeaf_Network.borderLeaf.eth[4].mac "frames/sec sent" 4.3234832682888
scalar XHost_SpineLeaf_Network.borderLeaf.eth[4].mac "frames/sec rcvd" 4.3339856567948
scalar XHost_SpineLeaf_Network.borderLeaf.eth[4].mac "bits/sec sent" 11120.433064764
scalar XHost_SpineLeaf_Network.borderLeaf.eth[4].mac "bits/sec rcvd" 11168.183924504
scalar XHost_SpineLeaf_Network.borderLeaf.eth[4].mac "rx channel idle (%)" 100
scalar XHost_SpineLeaf_Network.borderLeaf.eth[4].mac "rx channel utilization (%)" 0
scalar XHost_SpineLeaf_Network.borderLeaf.eth[4].mac txPk:count 1235
attr interpolationmode none
attr source packetSentToLower
attr title "packets transmitted, count"
scalar XHost_SpineLeaf_Network.borderLeaf.eth[4].mac txPk:sum(packetBytes) 397068
attr interpolationmode none
attr source packetSentToLower
attr title "packets transmitted, sum(packetBytes)"
scalar XHost_SpineLeaf_Network.borderLeaf.eth[4].mac packetReceivedFromUpper:count 1236
attr interpolationmode none
attr source packetReceivedFromUpper
attr title "packet bytes from higher layer, count"
scalar XHost_SpineLeaf_Network.borderLeaf.eth[4].mac packetReceivedFromUpper:sum(packetBytes) 393134
attr interpolationmode none
attr source packetReceivedFromUpper
attr title "packet bytes from higher layer, sum(packetBytes)"
scalar XHost_SpineLeaf_Network.borderLeaf.eth[4].mac passedUpPk:count 1238
attr interpolationmode none
attr source packetSentToUpper
attr title "packets passed to higher layer, count"
scalar XHost_SpineLeaf_Network.borderLeaf.eth[4].mac passedUpPk:sum(packetBytes) 398773
attr interpolationmode none
attr source packetSentToUpper
attr title "packets passed to higher layer, sum(packetBytes)"
scalar XHost_SpineLeaf_Network.borderLeaf.eth[4].mac packetDropIncorrectlyReceived:count 0
attr interpolationmode none
attr source packetDropReasonIsIncorrectlyReceived(packetDropped)
attr title "packet drop: incorrectly received, count"
scalar XHost_SpineLeaf_Network.borderLeaf.eth[4].mac packetDropIncorrectlyReceived:sum(packetBytes) 0
attr interpolationmode none
attr source packetDropReasonIsIncorrectlyReceived(packetDropped)
attr title "packet drop: incorrectly received, sum(packetBytes)"
scalar XHost_SpineLeaf_Network.borderLeaf.eth[4].mac packetDropInterfaceDown:count 0
attr interpolationmode none
attr source packetDropReasonIsInterfaceDown(packetDropped)
attr title "packet drop: interface down, count"
scalar XHost_SpineLeaf_Network.borderLeaf.eth[4].mac packetDropInterfaceDown:sum(packetBytes) 0
attr interpolationmode none
attr source packetDropReasonIsInterfaceDown(packetDropped)
attr title "packet drop: interface down, sum(packetBytes)"
scalar XHost_SpineLeaf_Network.borderLeaf.eth[4].mac packetDropNotAddressedToUs:count 0
attr interpolationmode none
attr source packetDropReasonIsNotAddressedToUs(packetDropped)
attr title "packet drop: not addressed to us, count"
scalar XHost_SpineLeaf_Network.borderLeaf.eth[4].mac packetDropNotAddressedToUs:sum(packetBytes) 0
attr interpolationmode none
attr source packetDropReasonIsNotAddressedToUs(packetDropped)
attr title "packet drop: not addressed to us, sum(packetBytes)"
scalar XHost_SpineLeaf_Network.borderLeaf.eth[4].mac rxPausePkUnits:count 0
attr interpolationmode none
attr title "pause units received, count"
scalar XHost_SpineLeaf_Network.borderLeaf.eth[4].mac rxPausePkUnits:sum 0
attr interpolationmode none
attr title "pause units received, sum"
scalar XHost_SpineLeaf_Network.borderLeaf.eth[4].mac txPausePkUnits:count 0
attr interpolationmode none
attr title "pause units sent, count"
scalar XHost_SpineLeaf_Network.borderLeaf.eth[4].mac txPausePkUnits:sum 0
attr interpolationmode none
attr title "pause units sent, sum"
scalar XHost_SpineLeaf_Network.borderLeaf.eth[4].mac rxPkOk:count 1238
attr interpolationmode none
attr source rxPkOk
attr title "packets received OK, count"
scalar XHost_SpineLeaf_Network.borderLeaf.eth[4].mac rxPkOk:sum(packetBytes) 398773
attr interpolationmode none
attr source rxPkOk
attr title "packets received OK, sum(packetBytes)"
scalar XHost_SpineLeaf_Network.borderLeaf.eth[4].encap pauseSent:count 0
attr title "pause sent, count"
scalar XHost_SpineLeaf_Network.borderLeaf.eth[4].encap pauseSent:sum 0
attr title "pause sent, sum"
scalar XHost_SpineLeaf_Network.borderLeaf.eth[4].encap decapPk:count 1238
attr interpolationmode none
attr source decapPk
attr title "packets decapsulated, count"
scalar XHost_SpineLeaf_Network.borderLeaf.eth[4].encap decapPk:sum(packetBytes) 376489
attr interpolationmode none
attr source decapPk
attr title "packets decapsulated, sum(packetBytes)"
scalar XHost_SpineLeaf_Network.borderLeaf.eth[4].encap encapPk:count 1236
attr interpolationmode none
attr source encapPk
attr title "packets encapsulated, count"
scalar XHost_SpineLeaf_Network.borderLeaf.eth[4].encap encapPk:sum(packetBytes) 370886
attr interpolationmode none
attr source encapPk
attr title "packets encapsulated, sum(packetBytes)"
scalar XHost_SpineLeaf_Network.borderLeaf.eth[5].mac.queue packetPopped:count 5832
attr interpolationmode none
attr title "packet popped, count"
scalar XHost_SpineLeaf_Network.borderLeaf.eth[5].mac.queue packetPopped:sum(packetBytes) 1969498
attr interpolationmode none
attr title "packet popped, sum(packetBytes)"
statistic XHost_SpineLeaf_Network.borderLeaf.eth[5].mac.queue queueingTime:histogram
field count 5832
field mean 7.2518434811387e-006
field stddev 1.5039987706962e-005
field min 0
field max 4.912e-005
field sum 0.042292751182001
field sqrsum 1.6256797854039e-006
attr interpolationmode none
attr source queueingTime(packetPopped)
attr title "queueing times, histogram"
attr unit s
bin	-inf	0
bin	0	4297
bin	1e-006	8
bin	2e-006	2
bin	3e-006	1
bin	4e-006	1
bin	5e-006	1
bin	6e-006	415
bin	7e-006	1
bin	8e-006	7
bin	9e-006	10
bin	1e-005	0
bin	1.1e-005	8
bin	1.2e-005	1
bin	1.3e-005	4
bin	1.4e-005	1
bin	1.5e-005	7
bin	1.6e-005	164
bin	1.7e-005	1
bin	1.8e-005	4
bin	1.9e-005	2
bin	2e-005	9
bin	2.1e-005	3
bin	2.2e-005	136
bin	2.3e-005	10
bin	2.4e-005	9
bin	2.5e-005	9
bin	2.6e-005	6
bin	2.7e-005	5
bin	2.8e-005	25
bin	2.9e-005	9
bin	3e-005	2
bin	3.1e-005	1
bin	3.2e-005	1
bin	3.3e-005	1
bin	3.4e-005	1
bin	3.5e-005	4
bin	3.6e-005	6
bin	3.7e-005	11
bin	3.8e-005	5
bin	3.9e-005	2
bin	4e-005	2
bin	4.1e-005	1
bin	4.2e-005	260
bin	4.3e-005	0
bin	4.4e-005	3
bin	4.5e-005	6
bin	4.6e-005	0
bin	4.7e-005	3
bin	4.8e-005	0
bin	4.9e-005	367
bin	5e-005	0
bin	5.1e-005	0
bin	5.2e-005	0
bin	5.3e-005	0
bin	5.4e-005	0
bin	5.5e-005	0
bin	5.6e-005	0
bin	5.7e-005	0
bin	5.8e-005	0
bin	5.9e-005	0
bin	6e-005	0
bin	6.1e-005	0
bin	6.2e-005	0
scalar XHost_SpineLeaf_Network.borderLeaf.eth[5].mac.queue queueLength:max 2
attr interpolationmode sample-hold
attr source "count(packetPushed) - count(packetPopped) - count(packetRemoved) - count(packetDropped)"
attr title "queue length, max"
scalar XHost_SpineLeaf_Network.borderLeaf.eth[5].mac.queue queueLength:timeavg 0.00014857847144167
attr interpolationmode sample-hold
attr source "count(packetPushed) - count(packetPopped) - count(packetRemoved) - count(packetDropped)"
attr title "queue length, timeavg"
scalar XHost_SpineLeaf_Network.borderLeaf.eth[5].mac.queue packetPushed:count 6045
attr interpolationmode none
attr title "packet pushed, count"
scalar XHost_SpineLeaf_Network.borderLeaf.eth[5].mac.queue packetPushed:sum(packetBytes) 2004330
attr interpolationmode none
attr title "packet pushed, sum(packetBytes)"
scalar XHost_SpineLeaf_Network.borderLeaf.eth[5].mac.queue packetDropQueueOverflow:count 213
attr interpolationmode none
attr source packetDropReasonIsQueueOverflow(packetDropped)
attr title "packet drops: queue overflow, count"
scalar XHost_SpineLeaf_Network.borderLeaf.eth[5].mac.queue packetDropQueueOverflow:sum(packetBytes) 34832
attr interpolationmode none
attr source packetDropReasonIsQueueOverflow(packetDropped)
attr title "packet drops: queue overflow, sum(packetBytes)"
scalar XHost_SpineLeaf_Network.borderLeaf.eth[5].mac.queue packetRemoved:count 0
attr interpolationmode none
attr title "packets removed, count"
scalar XHost_SpineLeaf_Network.borderLeaf.eth[5].mac.queue packetRemoved:sum(packetBytes) 0
attr interpolationmode none
attr title "packets removed, sum(packetBytes)"
scalar XHost_SpineLeaf_Network.borderLeaf.eth[5].mac "simulated time" 285.64930713582
scalar XHost_SpineLeaf_Network.borderLeaf.eth[5].mac full-duplex 1
scalar XHost_SpineLeaf_Network.borderLeaf.eth[5].mac "frames/sec sent" 20.416643255596
scalar XHost_SpineLeaf_Network.borderLeaf.eth[5].mac "frames/sec rcvd" 21.365359017301
scalar XHost_SpineLeaf_Network.borderLeaf.eth[5].mac "bits/sec sent" 55158.488420588
scalar XHost_SpineLeaf_Network.borderLeaf.eth[5].mac "bits/sec rcvd" 56124.736169506
scalar XHost_SpineLeaf_Network.borderLeaf.eth[5].mac "rx channel idle (%)" 100
scalar XHost_SpineLeaf_Network.borderLeaf.eth[5].mac "rx channel utilization (%)" 0
scalar XHost_SpineLeaf_Network.borderLeaf.eth[5].mac txPk:count 5832
attr interpolationmode none
attr source packetSentToLower
attr title "packets transmitted, count"
scalar XHost_SpineLeaf_Network.borderLeaf.eth[5].mac txPk:sum(packetBytes) 1969498
attr interpolationmode none
attr source packetSentToLower
attr title "packets transmitted, sum(packetBytes)"
scalar XHost_SpineLeaf_Network.borderLeaf.eth[5].mac packetReceivedFromUpper:count 6045
attr interpolationmode none
attr source packetReceivedFromUpper
attr title "packet bytes from higher layer, count"
scalar XHost_SpineLeaf_Network.borderLeaf.eth[5].mac packetReceivedFromUpper:sum(packetBytes) 1986650
attr interpolationmode none
attr source packetReceivedFromUpper
attr title "packet bytes from higher layer, sum(packetBytes)"
scalar XHost_SpineLeaf_Network.borderLeaf.eth[5].mac passedUpPk:count 6103
attr interpolationmode none
attr source packetSentToUpper
attr title "packets passed to higher layer, count"
scalar XHost_SpineLeaf_Network.borderLeaf.eth[5].mac passedUpPk:sum(packetBytes) 2003999
attr interpolationmode none
attr source packetSentToUpper
attr title "packets passed to higher layer, sum(packetBytes)"
scalar XHost_SpineLeaf_Network.borderLeaf.eth[5].mac packetDropIncorrectlyReceived:count 0
attr interpolationmode none
attr source packetDropReasonIsIncorrectlyReceived(packetDropped)
attr title "packet drop: incorrectly received, count"
scalar XHost_SpineLeaf_Network.borderLeaf.eth[5].mac packetDropIncorrectlyReceived:sum(packetBytes) 0
attr interpolationmode none
attr source packetDropReasonIsIncorrectlyReceived(packetDropped)
attr title "packet drop: incorrectly received, sum(packetBytes)"
scalar XHost_SpineLeaf_Network.borderLeaf.eth[5].mac packetDropInterfaceDown:count 0
attr interpolationmode none
attr source packetDropReasonIsInterfaceDown(packetDropped)
attr title "packet drop: interface down, count"
scalar XHost_SpineLeaf_Network.borderLeaf.eth[5].mac packetDropInterfaceDown:sum(packetBytes) 0
attr interpolationmode none
attr source packetDropReasonIsInterfaceDown(packetDropped)
attr title "packet drop: interface down, sum(packetBytes)"
scalar XHost_SpineLeaf_Network.borderLeaf.eth[5].mac packetDropNotAddressedToUs:count 0
attr interpolationmode none
attr source packetDropReasonIsNotAddressedToUs(packetDropped)
attr title "packet drop: not addressed to us, count"
scalar XHost_SpineLeaf_Network.borderLeaf.eth[5].mac packetDropNotAddressedToUs:sum(packetBytes) 0
attr interpolationmode none
attr source packetDropReasonIsNotAddressedToUs(packetDropped)
attr title "packet drop: not addressed to us, sum(packetBytes)"
scalar XHost_SpineLeaf_Network.borderLeaf.eth[5].mac rxPausePkUnits:count 0
attr interpolationmode none
attr title "pause units received, count"
scalar XHost_SpineLeaf_Network.borderLeaf.eth[5].mac rxPausePkUnits:sum 0
attr interpolationmode none
attr title "pause units received, sum"
scalar XHost_SpineLeaf_Network.borderLeaf.eth[5].mac txPausePkUnits:count 0
attr interpolationmode none
attr title "pause units sent, count"
scalar XHost_SpineLeaf_Network.borderLeaf.eth[5].mac txPausePkUnits:sum 0
attr interpolationmode none
attr title "pause units sent, sum"
scalar XHost_SpineLeaf_Network.borderLeaf.eth[5].mac rxPkOk:count 6103
attr interpolationmode none
attr source rxPkOk
attr title "packets received OK, count"
scalar XHost_SpineLeaf_Network.borderLeaf.eth[5].mac rxPkOk:sum(packetBytes) 2003999
attr interpolationmode none
attr source rxPkOk
attr title "packets received OK, sum(packetBytes)"
scalar XHost_SpineLeaf_Network.borderLeaf.eth[5].encap pauseSent:count 0
attr title "pause sent, count"
scalar XHost_SpineLeaf_Network.borderLeaf.eth[5].encap pauseSent:sum 0
attr title "pause sent, sum"
scalar XHost_SpineLeaf_Network.borderLeaf.eth[5].encap decapPk:count 6103
attr interpolationmode none
attr source decapPk
attr title "packets decapsulated, count"
scalar XHost_SpineLeaf_Network.borderLeaf.eth[5].encap decapPk:sum(packetBytes) 1894145
attr interpolationmode none
attr source decapPk
attr title "packets decapsulated, sum(packetBytes)"
scalar XHost_SpineLeaf_Network.borderLeaf.eth[5].encap encapPk:count 6045
attr interpolationmode none
attr source encapPk
attr title "packets encapsulated, count"
scalar XHost_SpineLeaf_Network.borderLeaf.eth[5].encap encapPk:sum(packetBytes) 1877840
attr interpolationmode none
attr source encapPk
attr title "packets encapsulated, sum(packetBytes)"
scalar XHost_SpineLeaf_Network.borderLeaf.ipv4.ip packetDropAddressResolutionFailed:count 0
attr interpolationmode none
attr source packetDropReasonIsAddressResolutionFailed(packetDropped)
attr title "packet drop: address resolution failed, count"
scalar XHost_SpineLeaf_Network.borderLeaf.ipv4.ip packetDropAddressResolutionFailed:sum(packetBytes) 0
attr interpolationmode none
attr source packetDropReasonIsAddressResolutionFailed(packetDropped)
attr title "packet drop: address resolution failed, sum(packetBytes)"
scalar XHost_SpineLeaf_Network.borderLeaf.ipv4.ip packetDropHopLimitReached:count 0
attr interpolationmode none
attr source packetDropReasonIsHopLimitReached(packetDropped)
attr title "packet drop: hop limit reached, count"
scalar XHost_SpineLeaf_Network.borderLeaf.ipv4.ip packetDropHopLimitReached:sum(packetBytes) 0
attr interpolationmode none
attr source packetDropReasonIsHopLimitReached(packetDropped)
attr title "packet drop: hop limit reached, sum(packetBytes)"
scalar XHost_SpineLeaf_Network.borderLeaf.ipv4.ip packetDropForwardingDisabled:count 0
attr interpolationmode none
attr source packetDropReasonIsForwardingDisabled(packetDropped)
attr title "packet drop: forwarding disabled, count"
scalar XHost_SpineLeaf_Network.borderLeaf.ipv4.ip packetDropForwardingDisabled:sum(packetBytes) 0
attr interpolationmode none
attr source packetDropReasonIsForwardingDisabled(packetDropped)
attr title "packet drop: forwarding disabled, sum(packetBytes)"
scalar XHost_SpineLeaf_Network.borderLeaf.ipv4.ip packetDropNoInterfaceFound:count 0
attr interpolationmode none
attr source packetDropReasonIsNoInterfaceFound(packetDropped)
attr title "packet drop: no interface found, count"
scalar XHost_SpineLeaf_Network.borderLeaf.ipv4.ip packetDropNoInterfaceFound:sum(packetBytes) 0
attr interpolationmode none
attr source packetDropReasonIsNoInterfaceFound(packetDropped)
attr title "packet drop: no interface found, sum(packetBytes)"
scalar XHost_SpineLeaf_Network.borderLeaf.ipv4.ip packetDropNoRouteFound:count 0
attr interpolationmode none
attr source packetDropReasonIsNoRouteFound(packetDropped)
attr title "packet drop: no route found, count"
scalar XHost_SpineLeaf_Network.borderLeaf.ipv4.ip packetDropNoRouteFound:sum(packetBytes) 0
attr interpolationmode none
attr source packetDropReasonIsNoRouteFound(packetDropped)
attr title "packet drop: no route found, sum(packetBytes)"
scalar XHost_SpineLeaf_Network.borderLeaf.ipv4.ip packetDropUndefined:count 0
attr interpolationmode none
attr source packetDropReasonIsUndefined(packetDropped)
attr title "packet drop: undefined, count"
scalar XHost_SpineLeaf_Network.borderLeaf.ipv4.ip packetDropUndefined:sum(packetBytes) 0
attr interpolationmode none
attr source packetDropReasonIsUndefined(packetDropped)
attr title "packet drop: undefined, sum(packetBytes)"
scalar XHost_SpineLeaf_Network.borderLeaf.ipv4.arp arpReplySent:count 5
attr source arpReplySent
attr title "ARP replies sent, count"
scalar XHost_SpineLeaf_Network.borderLeaf.ipv4.arp arpReplySent:sum(packetBytes) 140
attr source arpReplySent
attr title "ARP replies sent, sum(packetBytes)"
scalar XHost_SpineLeaf_Network.borderLeaf.ipv4.arp arpRequestSent:count 81
attr source arpRequestSent
attr title "ARP request sent, count"
scalar XHost_SpineLeaf_Network.borderLeaf.ipv4.arp arpRequestSent:sum(packetBytes) 2268
attr source arpRequestSent
attr title "ARP request sent, sum(packetBytes)"
scalar XHost_SpineLeaf_Network.borderLeaf.ipv4.arp arpResolutionFailed:count 0
attr title "ARP failed resolutions, count"
scalar XHost_SpineLeaf_Network.borderLeaf.ipv4.arp arpResolutionCompleted:count 86
attr title "ARP completed resolutions, count"
scalar XHost_SpineLeaf_Network.borderLeaf.ipv4.arp arpResolutionInitiated:count 81
attr title "ARP initiated resolutions, count"

