version 2
run Traffic_2-0-20210203-22:29:58-14676
attr configname Traffic_2
attr datetime 20210203-22:29:58
attr experiment Traffic_2
attr inifile XHost_SpineLeaf.ini
attr iterationvars ""
attr iterationvarsf ""
attr measurement ""
attr network XHost_SpineLeaf_Network
attr processid 14676
attr repetition 0
attr replication #0
attr resultdir results
attr runnumber 0
attr seedset 0
param **.borderLeaf.**.packetCapacity 5
param **.leaf[*].**.packetCapacity 5
param **.spine[*].**.packetCapacity 5
param **.leaf[0].H[0].numApps 1
param **.border.numApps 1
param **.border.app[0].typename "\"TcpSinkApp\""
param **.leaf[0].H[0].app[0].typename "\"TcpSessionApp\""
param **.leaf[0].H[0].app[0].connectAddress "\"border\""
param **.leaf[0].H[0].app[0].sendScript "\"5 2;\""
param **.leaf[0].H[0].app[0].tSend 0
param **.leaf[0].H[0].app[0].sendBytes 0
param **.LanVisualizer.interfaceTableVisualizer.displayInterfaceTables true
param **.LanVisualizer.interfaceTableVisualizer.displayWiredInterfacesAtConnections false
param **.LanVisualizer.interfaceTableVisualizer.nodeFilter "\"not (*topOfRack or *H*)\""
param **.LanVisualizer.interfaceTableVisualizer.placementPriority 2
param **.LanVisualizer.interfaceTableVisualizer.format "\"%N %\\\\%n/%l%\\\\%m\""
param **.LanVisualizer.packetDropVisualizer.displayPacketDrops true
param **.LanVisualizer.packetDropVisualizer.labelFormat "\"%n/reason: %r\""
param **.LanVisualizer.packetDropVisualizer.fadeOutTime 10s
param **.LeafVisualizer.interfaceTableVisualizer.displayInterfaceTables true
param **.LeafVisualizer.interfaceTableVisualizer.displayWiredInterfacesAtConnections false
param **.LeafVisualizer.interfaceTableVisualizer.placementPriority 2
param **.LeafVisualizer.interfaceTableVisualizer.format "\"%N %\\\\%n/%l%\\\\%m\""
param **.configurator.config "xmldoc(\"XHost_SpineLeaf_Routing.xml\")"

scalar XHost_SpineLeaf_Network.spine[0].lo[0].lo rcvdPkFromHl:count 0
attr interpolationmode none
attr source packetReceivedFromUpper
attr title "packets received from higher layer, count"
scalar XHost_SpineLeaf_Network.spine[0].lo[0].lo rcvdPkFromHl:sum(packetBytes) 0
attr interpolationmode none
attr source packetReceivedFromUpper
attr title "packets received from higher layer, sum(packetBytes)"
scalar XHost_SpineLeaf_Network.spine[0].lo[0].lo passedUpPk:count 0
attr interpolationmode none
attr source packetSentToUpper
attr title "packets passed to higher layer, count"
scalar XHost_SpineLeaf_Network.spine[0].lo[0].lo passedUpPk:sum(packetBytes) 0
attr interpolationmode none
attr source packetSentToUpper
attr title "packets passed to higher layer, sum(packetBytes)"
scalar XHost_SpineLeaf_Network.spine[0].eth[0].mac.queue packetPopped:count 2
attr interpolationmode none
attr title "packet popped, count"
scalar XHost_SpineLeaf_Network.spine[0].eth[0].mac.queue packetPopped:sum(packetBytes) 128
attr interpolationmode none
attr title "packet popped, sum(packetBytes)"
statistic XHost_SpineLeaf_Network.spine[0].eth[0].mac.queue queueingTime:histogram
field count 2
field mean 0
field stddev 0
field min 0
field max 0
field sum 0
field sqrsum 0
attr interpolationmode none
attr source queueingTime(packetPopped)
attr title "queueing times, histogram"
attr unit s
bin	-inf	0
bin	-0.5	0
bin	-0.48	0
bin	-0.46	0
bin	-0.44	0
bin	-0.42	0
bin	-0.4	0
bin	-0.38	0
bin	-0.36	0
bin	-0.34	0
bin	-0.32	0
bin	-0.3	0
bin	-0.28	0
bin	-0.26	0
bin	-0.24	0
bin	-0.22	0
bin	-0.2	0
bin	-0.18	0
bin	-0.16	0
bin	-0.14	0
bin	-0.12	0
bin	-0.1	0
bin	-0.08	0
bin	-0.06	0
bin	-0.04	0
bin	-0.02	0
bin	0	2
bin	0.02	0
bin	0.04	0
bin	0.06	0
bin	0.08	0
bin	0.1	0
bin	0.12	0
bin	0.14	0
bin	0.16	0
bin	0.18	0
bin	0.2	0
bin	0.22	0
bin	0.24	0
bin	0.26	0
bin	0.28	0
bin	0.3	0
bin	0.32	0
bin	0.34	0
bin	0.36	0
bin	0.38	0
bin	0.4	0
bin	0.42	0
bin	0.44	0
bin	0.46	0
bin	0.48	0
bin	0.5	0
scalar XHost_SpineLeaf_Network.spine[0].eth[0].mac.queue queueLength:max 1
attr interpolationmode sample-hold
attr source "count(packetPushed) - count(packetPopped) - count(packetRemoved) - count(packetDropped)"
attr title "queue length, max"
scalar XHost_SpineLeaf_Network.spine[0].eth[0].mac.queue queueLength:timeavg 0
attr interpolationmode sample-hold
attr source "count(packetPushed) - count(packetPopped) - count(packetRemoved) - count(packetDropped)"
attr title "queue length, timeavg"
scalar XHost_SpineLeaf_Network.spine[0].eth[0].mac.queue packetPushed:count 2
attr interpolationmode none
attr title "packet pushed, count"
scalar XHost_SpineLeaf_Network.spine[0].eth[0].mac.queue packetPushed:sum(packetBytes) 128
attr interpolationmode none
attr title "packet pushed, sum(packetBytes)"
scalar XHost_SpineLeaf_Network.spine[0].eth[0].mac.queue packetDropQueueOverflow:count 0
attr interpolationmode none
attr source packetDropReasonIsQueueOverflow(packetDropped)
attr title "packet drops: queue overflow, count"
scalar XHost_SpineLeaf_Network.spine[0].eth[0].mac.queue packetDropQueueOverflow:sum(packetBytes) 0
attr interpolationmode none
attr source packetDropReasonIsQueueOverflow(packetDropped)
attr title "packet drops: queue overflow, sum(packetBytes)"
scalar XHost_SpineLeaf_Network.spine[0].eth[0].mac.queue packetRemoved:count 0
attr interpolationmode none
attr title "packets removed, count"
scalar XHost_SpineLeaf_Network.spine[0].eth[0].mac.queue packetRemoved:sum(packetBytes) 0
attr interpolationmode none
attr title "packets removed, sum(packetBytes)"
scalar XHost_SpineLeaf_Network.spine[0].eth[0].mac "simulated time" 245.0001064
scalar XHost_SpineLeaf_Network.spine[0].eth[0].mac full-duplex 1
scalar XHost_SpineLeaf_Network.spine[0].eth[0].mac "frames/sec sent" 0.0081632617609345
scalar XHost_SpineLeaf_Network.spine[0].eth[0].mac "frames/sec rcvd" 0.0040816308804672
scalar XHost_SpineLeaf_Network.spine[0].eth[0].mac "bits/sec sent" 4.1795900215985
scalar XHost_SpineLeaf_Network.spine[0].eth[0].mac "bits/sec rcvd" 2.0897950107992
scalar XHost_SpineLeaf_Network.spine[0].eth[0].mac "rx channel idle (%)" 100
scalar XHost_SpineLeaf_Network.spine[0].eth[0].mac "rx channel utilization (%)" 0
scalar XHost_SpineLeaf_Network.spine[0].eth[0].mac txPk:count 2
attr interpolationmode none
attr source packetSentToLower
attr title "packets transmitted, count"
scalar XHost_SpineLeaf_Network.spine[0].eth[0].mac txPk:sum(packetBytes) 128
attr interpolationmode none
attr source packetSentToLower
attr title "packets transmitted, sum(packetBytes)"
scalar XHost_SpineLeaf_Network.spine[0].eth[0].mac packetReceivedFromUpper:count 2
attr interpolationmode none
attr source packetReceivedFromUpper
attr title "packet bytes from higher layer, count"
scalar XHost_SpineLeaf_Network.spine[0].eth[0].mac packetReceivedFromUpper:sum(packetBytes) 104
attr interpolationmode none
attr source packetReceivedFromUpper
attr title "packet bytes from higher layer, sum(packetBytes)"
scalar XHost_SpineLeaf_Network.spine[0].eth[0].mac passedUpPk:count 1
attr interpolationmode none
attr source packetSentToUpper
attr title "packets passed to higher layer, count"
scalar XHost_SpineLeaf_Network.spine[0].eth[0].mac passedUpPk:sum(packetBytes) 64
attr interpolationmode none
attr source packetSentToUpper
attr title "packets passed to higher layer, sum(packetBytes)"
scalar XHost_SpineLeaf_Network.spine[0].eth[0].mac packetDropIncorrectlyReceived:count 0
attr interpolationmode none
attr source packetDropReasonIsIncorrectlyReceived(packetDropped)
attr title "packet drop: incorrectly received, count"
scalar XHost_SpineLeaf_Network.spine[0].eth[0].mac packetDropIncorrectlyReceived:sum(packetBytes) 0
attr interpolationmode none
attr source packetDropReasonIsIncorrectlyReceived(packetDropped)
attr title "packet drop: incorrectly received, sum(packetBytes)"
scalar XHost_SpineLeaf_Network.spine[0].eth[0].mac packetDropInterfaceDown:count 0
attr interpolationmode none
attr source packetDropReasonIsInterfaceDown(packetDropped)
attr title "packet drop: interface down, count"
scalar XHost_SpineLeaf_Network.spine[0].eth[0].mac packetDropInterfaceDown:sum(packetBytes) 0
attr interpolationmode none
attr source packetDropReasonIsInterfaceDown(packetDropped)
attr title "packet drop: interface down, sum(packetBytes)"
scalar XHost_SpineLeaf_Network.spine[0].eth[0].mac packetDropNotAddressedToUs:count 0
attr interpolationmode none
attr source packetDropReasonIsNotAddressedToUs(packetDropped)
attr title "packet drop: not addressed to us, count"
scalar XHost_SpineLeaf_Network.spine[0].eth[0].mac packetDropNotAddressedToUs:sum(packetBytes) 0
attr interpolationmode none
attr source packetDropReasonIsNotAddressedToUs(packetDropped)
attr title "packet drop: not addressed to us, sum(packetBytes)"
scalar XHost_SpineLeaf_Network.spine[0].eth[0].mac rxPausePkUnits:count 0
attr interpolationmode none
attr title "pause units received, count"
scalar XHost_SpineLeaf_Network.spine[0].eth[0].mac rxPausePkUnits:sum 0
attr interpolationmode none
attr title "pause units received, sum"
scalar XHost_SpineLeaf_Network.spine[0].eth[0].mac txPausePkUnits:count 0
attr interpolationmode none
attr title "pause units sent, count"
scalar XHost_SpineLeaf_Network.spine[0].eth[0].mac txPausePkUnits:sum 0
attr interpolationmode none
attr title "pause units sent, sum"
scalar XHost_SpineLeaf_Network.spine[0].eth[0].mac rxPkOk:count 1
attr interpolationmode none
attr source rxPkOk
attr title "packets received OK, count"
scalar XHost_SpineLeaf_Network.spine[0].eth[0].mac rxPkOk:sum(packetBytes) 64
attr interpolationmode none
attr source rxPkOk
attr title "packets received OK, sum(packetBytes)"
scalar XHost_SpineLeaf_Network.spine[0].eth[0].encap pauseSent:count 0
attr title "pause sent, count"
scalar XHost_SpineLeaf_Network.spine[0].eth[0].encap pauseSent:sum 0
attr title "pause sent, sum"
scalar XHost_SpineLeaf_Network.spine[0].eth[0].encap decapPk:count 1
attr interpolationmode none
attr source decapPk
attr title "packets decapsulated, count"
scalar XHost_SpineLeaf_Network.spine[0].eth[0].encap decapPk:sum(packetBytes) 46
attr interpolationmode none
attr source decapPk
attr title "packets decapsulated, sum(packetBytes)"
scalar XHost_SpineLeaf_Network.spine[0].eth[0].encap encapPk:count 2
attr interpolationmode none
attr source encapPk
attr title "packets encapsulated, count"
scalar XHost_SpineLeaf_Network.spine[0].eth[0].encap encapPk:sum(packetBytes) 68
attr interpolationmode none
attr source encapPk
attr title "packets encapsulated, sum(packetBytes)"
scalar XHost_SpineLeaf_Network.spine[0].eth[1].mac.queue packetPopped:count 1
attr interpolationmode none
attr title "packet popped, count"
scalar XHost_SpineLeaf_Network.spine[0].eth[1].mac.queue packetPopped:sum(packetBytes) 64
attr interpolationmode none
attr title "packet popped, sum(packetBytes)"
statistic XHost_SpineLeaf_Network.spine[0].eth[1].mac.queue queueingTime:histogram
field count 1
field mean 0
field stddev nan
field min 0
field max 0
field sum 0
field sqrsum 0
attr interpolationmode none
attr source queueingTime(packetPopped)
attr title "queueing times, histogram"
attr unit s
bin	-inf	0
bin	-0.5	0
bin	-0.48	0
bin	-0.46	0
bin	-0.44	0
bin	-0.42	0
bin	-0.4	0
bin	-0.38	0
bin	-0.36	0
bin	-0.34	0
bin	-0.32	0
bin	-0.3	0
bin	-0.28	0
bin	-0.26	0
bin	-0.24	0
bin	-0.22	0
bin	-0.2	0
bin	-0.18	0
bin	-0.16	0
bin	-0.14	0
bin	-0.12	0
bin	-0.1	0
bin	-0.08	0
bin	-0.06	0
bin	-0.04	0
bin	-0.02	0
bin	0	1
bin	0.02	0
bin	0.04	0
bin	0.06	0
bin	0.08	0
bin	0.1	0
bin	0.12	0
bin	0.14	0
bin	0.16	0
bin	0.18	0
bin	0.2	0
bin	0.22	0
bin	0.24	0
bin	0.26	0
bin	0.28	0
bin	0.3	0
bin	0.32	0
bin	0.34	0
bin	0.36	0
bin	0.38	0
bin	0.4	0
bin	0.42	0
bin	0.44	0
bin	0.46	0
bin	0.48	0
bin	0.5	0
scalar XHost_SpineLeaf_Network.spine[0].eth[1].mac.queue queueLength:max 1
attr interpolationmode sample-hold
attr source "count(packetPushed) - count(packetPopped) - count(packetRemoved) - count(packetDropped)"
attr title "queue length, max"
scalar XHost_SpineLeaf_Network.spine[0].eth[1].mac.queue queueLength:timeavg 0
attr interpolationmode sample-hold
attr source "count(packetPushed) - count(packetPopped) - count(packetRemoved) - count(packetDropped)"
attr title "queue length, timeavg"
scalar XHost_SpineLeaf_Network.spine[0].eth[1].mac.queue packetPushed:count 1
attr interpolationmode none
attr title "packet pushed, count"
scalar XHost_SpineLeaf_Network.spine[0].eth[1].mac.queue packetPushed:sum(packetBytes) 64
attr interpolationmode none
attr title "packet pushed, sum(packetBytes)"
scalar XHost_SpineLeaf_Network.spine[0].eth[1].mac.queue packetDropQueueOverflow:count 0
attr interpolationmode none
attr source packetDropReasonIsQueueOverflow(packetDropped)
attr title "packet drops: queue overflow, count"
scalar XHost_SpineLeaf_Network.spine[0].eth[1].mac.queue packetDropQueueOverflow:sum(packetBytes) 0
attr interpolationmode none
attr source packetDropReasonIsQueueOverflow(packetDropped)
attr title "packet drops: queue overflow, sum(packetBytes)"
scalar XHost_SpineLeaf_Network.spine[0].eth[1].mac.queue packetRemoved:count 0
attr interpolationmode none
attr title "packets removed, count"
scalar XHost_SpineLeaf_Network.spine[0].eth[1].mac.queue packetRemoved:sum(packetBytes) 0
attr interpolationmode none
attr title "packets removed, sum(packetBytes)"
scalar XHost_SpineLeaf_Network.spine[0].eth[1].mac "simulated time" 245.0001064
scalar XHost_SpineLeaf_Network.spine[0].eth[1].mac full-duplex 1
scalar XHost_SpineLeaf_Network.spine[0].eth[1].mac "frames/sec sent" 0.0040816308804672
scalar XHost_SpineLeaf_Network.spine[0].eth[1].mac "frames/sec rcvd" 0.0081632617609345
scalar XHost_SpineLeaf_Network.spine[0].eth[1].mac "bits/sec sent" 2.0897950107992
scalar XHost_SpineLeaf_Network.spine[0].eth[1].mac "bits/sec rcvd" 4.1795900215985
scalar XHost_SpineLeaf_Network.spine[0].eth[1].mac "rx channel idle (%)" 100
scalar XHost_SpineLeaf_Network.spine[0].eth[1].mac "rx channel utilization (%)" 0
scalar XHost_SpineLeaf_Network.spine[0].eth[1].mac txPk:count 1
attr interpolationmode none
attr source packetSentToLower
attr title "packets transmitted, count"
scalar XHost_SpineLeaf_Network.spine[0].eth[1].mac txPk:sum(packetBytes) 64
attr interpolationmode none
attr source packetSentToLower
attr title "packets transmitted, sum(packetBytes)"
scalar XHost_SpineLeaf_Network.spine[0].eth[1].mac packetReceivedFromUpper:count 1
attr interpolationmode none
attr source packetReceivedFromUpper
attr title "packet bytes from higher layer, count"
scalar XHost_SpineLeaf_Network.spine[0].eth[1].mac packetReceivedFromUpper:sum(packetBytes) 46
attr interpolationmode none
attr source packetReceivedFromUpper
attr title "packet bytes from higher layer, sum(packetBytes)"
scalar XHost_SpineLeaf_Network.spine[0].eth[1].mac passedUpPk:count 2
attr interpolationmode none
attr source packetSentToUpper
attr title "packets passed to higher layer, count"
scalar XHost_SpineLeaf_Network.spine[0].eth[1].mac passedUpPk:sum(packetBytes) 128
attr interpolationmode none
attr source packetSentToUpper
attr title "packets passed to higher layer, sum(packetBytes)"
scalar XHost_SpineLeaf_Network.spine[0].eth[1].mac packetDropIncorrectlyReceived:count 0
attr interpolationmode none
attr source packetDropReasonIsIncorrectlyReceived(packetDropped)
attr title "packet drop: incorrectly received, count"
scalar XHost_SpineLeaf_Network.spine[0].eth[1].mac packetDropIncorrectlyReceived:sum(packetBytes) 0
attr interpolationmode none
attr source packetDropReasonIsIncorrectlyReceived(packetDropped)
attr title "packet drop: incorrectly received, sum(packetBytes)"
scalar XHost_SpineLeaf_Network.spine[0].eth[1].mac packetDropInterfaceDown:count 0
attr interpolationmode none
attr source packetDropReasonIsInterfaceDown(packetDropped)
attr title "packet drop: interface down, count"
scalar XHost_SpineLeaf_Network.spine[0].eth[1].mac packetDropInterfaceDown:sum(packetBytes) 0
attr interpolationmode none
attr source packetDropReasonIsInterfaceDown(packetDropped)
attr title "packet drop: interface down, sum(packetBytes)"
scalar XHost_SpineLeaf_Network.spine[0].eth[1].mac packetDropNotAddressedToUs:count 0
attr interpolationmode none
attr source packetDropReasonIsNotAddressedToUs(packetDropped)
attr title "packet drop: not addressed to us, count"
scalar XHost_SpineLeaf_Network.spine[0].eth[1].mac packetDropNotAddressedToUs:sum(packetBytes) 0
attr interpolationmode none
attr source packetDropReasonIsNotAddressedToUs(packetDropped)
attr title "packet drop: not addressed to us, sum(packetBytes)"
scalar XHost_SpineLeaf_Network.spine[0].eth[1].mac rxPausePkUnits:count 0
attr interpolationmode none
attr title "pause units received, count"
scalar XHost_SpineLeaf_Network.spine[0].eth[1].mac rxPausePkUnits:sum 0
attr interpolationmode none
attr title "pause units received, sum"
scalar XHost_SpineLeaf_Network.spine[0].eth[1].mac txPausePkUnits:count 0
attr interpolationmode none
attr title "pause units sent, count"
scalar XHost_SpineLeaf_Network.spine[0].eth[1].mac txPausePkUnits:sum 0
attr interpolationmode none
attr title "pause units sent, sum"
scalar XHost_SpineLeaf_Network.spine[0].eth[1].mac rxPkOk:count 2
attr interpolationmode none
attr source rxPkOk
attr title "packets received OK, count"
scalar XHost_SpineLeaf_Network.spine[0].eth[1].mac rxPkOk:sum(packetBytes) 128
attr interpolationmode none
attr source rxPkOk
attr title "packets received OK, sum(packetBytes)"
scalar XHost_SpineLeaf_Network.spine[0].eth[1].encap pauseSent:count 0
attr title "pause sent, count"
scalar XHost_SpineLeaf_Network.spine[0].eth[1].encap pauseSent:sum 0
attr title "pause sent, sum"
scalar XHost_SpineLeaf_Network.spine[0].eth[1].encap decapPk:count 2
attr interpolationmode none
attr source decapPk
attr title "packets decapsulated, count"
scalar XHost_SpineLeaf_Network.spine[0].eth[1].encap decapPk:sum(packetBytes) 92
attr interpolationmode none
attr source decapPk
attr title "packets decapsulated, sum(packetBytes)"
scalar XHost_SpineLeaf_Network.spine[0].eth[1].encap encapPk:count 1
attr interpolationmode none
attr source encapPk
attr title "packets encapsulated, count"
scalar XHost_SpineLeaf_Network.spine[0].eth[1].encap encapPk:sum(packetBytes) 28
attr interpolationmode none
attr source encapPk
attr title "packets encapsulated, sum(packetBytes)"
scalar XHost_SpineLeaf_Network.spine[0].eth[2].mac.queue packetPopped:count 0
attr interpolationmode none
attr title "packet popped, count"
scalar XHost_SpineLeaf_Network.spine[0].eth[2].mac.queue packetPopped:sum(packetBytes) 0
attr interpolationmode none
attr title "packet popped, sum(packetBytes)"
statistic XHost_SpineLeaf_Network.spine[0].eth[2].mac.queue queueingTime:histogram
field count 0
field mean nan
field stddev nan
field min nan
field max nan
field sum 0
field sqrsum 0
attr interpolationmode none
attr source queueingTime(packetPopped)
attr title "queueing times, histogram"
attr unit s
bin	-inf	0
bin	0	0
bin	1	0
scalar XHost_SpineLeaf_Network.spine[0].eth[2].mac.queue queueLength:max nan
attr interpolationmode sample-hold
attr source "count(packetPushed) - count(packetPopped) - count(packetRemoved) - count(packetDropped)"
attr title "queue length, max"
scalar XHost_SpineLeaf_Network.spine[0].eth[2].mac.queue queueLength:timeavg nan
attr interpolationmode sample-hold
attr source "count(packetPushed) - count(packetPopped) - count(packetRemoved) - count(packetDropped)"
attr title "queue length, timeavg"
scalar XHost_SpineLeaf_Network.spine[0].eth[2].mac.queue packetPushed:count 0
attr interpolationmode none
attr title "packet pushed, count"
scalar XHost_SpineLeaf_Network.spine[0].eth[2].mac.queue packetPushed:sum(packetBytes) 0
attr interpolationmode none
attr title "packet pushed, sum(packetBytes)"
scalar XHost_SpineLeaf_Network.spine[0].eth[2].mac.queue packetDropQueueOverflow:count 0
attr interpolationmode none
attr source packetDropReasonIsQueueOverflow(packetDropped)
attr title "packet drops: queue overflow, count"
scalar XHost_SpineLeaf_Network.spine[0].eth[2].mac.queue packetDropQueueOverflow:sum(packetBytes) 0
attr interpolationmode none
attr source packetDropReasonIsQueueOverflow(packetDropped)
attr title "packet drops: queue overflow, sum(packetBytes)"
scalar XHost_SpineLeaf_Network.spine[0].eth[2].mac.queue packetRemoved:count 0
attr interpolationmode none
attr title "packets removed, count"
scalar XHost_SpineLeaf_Network.spine[0].eth[2].mac.queue packetRemoved:sum(packetBytes) 0
attr interpolationmode none
attr title "packets removed, sum(packetBytes)"
scalar XHost_SpineLeaf_Network.spine[0].eth[2].mac "simulated time" 245.0001064
scalar XHost_SpineLeaf_Network.spine[0].eth[2].mac full-duplex 1
scalar XHost_SpineLeaf_Network.spine[0].eth[2].mac "frames/sec sent" 0
scalar XHost_SpineLeaf_Network.spine[0].eth[2].mac "frames/sec rcvd" 0
scalar XHost_SpineLeaf_Network.spine[0].eth[2].mac "bits/sec sent" 0
scalar XHost_SpineLeaf_Network.spine[0].eth[2].mac "bits/sec rcvd" 0
scalar XHost_SpineLeaf_Network.spine[0].eth[2].mac "rx channel idle (%)" 100
scalar XHost_SpineLeaf_Network.spine[0].eth[2].mac "rx channel utilization (%)" 0
scalar XHost_SpineLeaf_Network.spine[0].eth[2].mac txPk:count 0
attr interpolationmode none
attr source packetSentToLower
attr title "packets transmitted, count"
scalar XHost_SpineLeaf_Network.spine[0].eth[2].mac txPk:sum(packetBytes) 0
attr interpolationmode none
attr source packetSentToLower
attr title "packets transmitted, sum(packetBytes)"
scalar XHost_SpineLeaf_Network.spine[0].eth[2].mac packetReceivedFromUpper:count 0
attr interpolationmode none
attr source packetReceivedFromUpper
attr title "packet bytes from higher layer, count"
scalar XHost_SpineLeaf_Network.spine[0].eth[2].mac packetReceivedFromUpper:sum(packetBytes) 0
attr interpolationmode none
attr source packetReceivedFromUpper
attr title "packet bytes from higher layer, sum(packetBytes)"
scalar XHost_SpineLeaf_Network.spine[0].eth[2].mac passedUpPk:count 0
attr interpolationmode none
attr source packetSentToUpper
attr title "packets passed to higher layer, count"
scalar XHost_SpineLeaf_Network.spine[0].eth[2].mac passedUpPk:sum(packetBytes) 0
attr interpolationmode none
attr source packetSentToUpper
attr title "packets passed to higher layer, sum(packetBytes)"
scalar XHost_SpineLeaf_Network.spine[0].eth[2].mac packetDropIncorrectlyReceived:count 0
attr interpolationmode none
attr source packetDropReasonIsIncorrectlyReceived(packetDropped)
attr title "packet drop: incorrectly received, count"
scalar XHost_SpineLeaf_Network.spine[0].eth[2].mac packetDropIncorrectlyReceived:sum(packetBytes) 0
attr interpolationmode none
attr source packetDropReasonIsIncorrectlyReceived(packetDropped)
attr title "packet drop: incorrectly received, sum(packetBytes)"
scalar XHost_SpineLeaf_Network.spine[0].eth[2].mac packetDropInterfaceDown:count 0
attr interpolationmode none
attr source packetDropReasonIsInterfaceDown(packetDropped)
attr title "packet drop: interface down, count"
scalar XHost_SpineLeaf_Network.spine[0].eth[2].mac packetDropInterfaceDown:sum(packetBytes) 0
attr interpolationmode none
attr source packetDropReasonIsInterfaceDown(packetDropped)
attr title "packet drop: interface down, sum(packetBytes)"
scalar XHost_SpineLeaf_Network.spine[0].eth[2].mac packetDropNotAddressedToUs:count 0
attr interpolationmode none
attr source packetDropReasonIsNotAddressedToUs(packetDropped)
attr title "packet drop: not addressed to us, count"
scalar XHost_SpineLeaf_Network.spine[0].eth[2].mac packetDropNotAddressedToUs:sum(packetBytes) 0
attr interpolationmode none
attr source packetDropReasonIsNotAddressedToUs(packetDropped)
attr title "packet drop: not addressed to us, sum(packetBytes)"
scalar XHost_SpineLeaf_Network.spine[0].eth[2].mac rxPausePkUnits:count 0
attr interpolationmode none
attr title "pause units received, count"
scalar XHost_SpineLeaf_Network.spine[0].eth[2].mac rxPausePkUnits:sum 0
attr interpolationmode none
attr title "pause units received, sum"
scalar XHost_SpineLeaf_Network.spine[0].eth[2].mac txPausePkUnits:count 0
attr interpolationmode none
attr title "pause units sent, count"
scalar XHost_SpineLeaf_Network.spine[0].eth[2].mac txPausePkUnits:sum 0
attr interpolationmode none
attr title "pause units sent, sum"
scalar XHost_SpineLeaf_Network.spine[0].eth[2].mac rxPkOk:count 0
attr interpolationmode none
attr source rxPkOk
attr title "packets received OK, count"
scalar XHost_SpineLeaf_Network.spine[0].eth[2].mac rxPkOk:sum(packetBytes) 0
attr interpolationmode none
attr source rxPkOk
attr title "packets received OK, sum(packetBytes)"
scalar XHost_SpineLeaf_Network.spine[0].eth[2].encap pauseSent:count 0
attr title "pause sent, count"
scalar XHost_SpineLeaf_Network.spine[0].eth[2].encap pauseSent:sum 0
attr title "pause sent, sum"
scalar XHost_SpineLeaf_Network.spine[0].eth[2].encap decapPk:count 0
attr interpolationmode none
attr source decapPk
attr title "packets decapsulated, count"
scalar XHost_SpineLeaf_Network.spine[0].eth[2].encap decapPk:sum(packetBytes) 0
attr interpolationmode none
attr source decapPk
attr title "packets decapsulated, sum(packetBytes)"
scalar XHost_SpineLeaf_Network.spine[0].eth[2].encap encapPk:count 0
attr interpolationmode none
attr source encapPk
attr title "packets encapsulated, count"
scalar XHost_SpineLeaf_Network.spine[0].eth[2].encap encapPk:sum(packetBytes) 0
attr interpolationmode none
attr source encapPk
attr title "packets encapsulated, sum(packetBytes)"
scalar XHost_SpineLeaf_Network.spine[0].eth[3].mac.queue packetPopped:count 0
attr interpolationmode none
attr title "packet popped, count"
scalar XHost_SpineLeaf_Network.spine[0].eth[3].mac.queue packetPopped:sum(packetBytes) 0
attr interpolationmode none
attr title "packet popped, sum(packetBytes)"
statistic XHost_SpineLeaf_Network.spine[0].eth[3].mac.queue queueingTime:histogram
field count 0
field mean nan
field stddev nan
field min nan
field max nan
field sum 0
field sqrsum 0
attr interpolationmode none
attr source queueingTime(packetPopped)
attr title "queueing times, histogram"
attr unit s
bin	-inf	0
bin	0	0
bin	1	0
scalar XHost_SpineLeaf_Network.spine[0].eth[3].mac.queue queueLength:max nan
attr interpolationmode sample-hold
attr source "count(packetPushed) - count(packetPopped) - count(packetRemoved) - count(packetDropped)"
attr title "queue length, max"
scalar XHost_SpineLeaf_Network.spine[0].eth[3].mac.queue queueLength:timeavg nan
attr interpolationmode sample-hold
attr source "count(packetPushed) - count(packetPopped) - count(packetRemoved) - count(packetDropped)"
attr title "queue length, timeavg"
scalar XHost_SpineLeaf_Network.spine[0].eth[3].mac.queue packetPushed:count 0
attr interpolationmode none
attr title "packet pushed, count"
scalar XHost_SpineLeaf_Network.spine[0].eth[3].mac.queue packetPushed:sum(packetBytes) 0
attr interpolationmode none
attr title "packet pushed, sum(packetBytes)"
scalar XHost_SpineLeaf_Network.spine[0].eth[3].mac.queue packetDropQueueOverflow:count 0
attr interpolationmode none
attr source packetDropReasonIsQueueOverflow(packetDropped)
attr title "packet drops: queue overflow, count"
scalar XHost_SpineLeaf_Network.spine[0].eth[3].mac.queue packetDropQueueOverflow:sum(packetBytes) 0
attr interpolationmode none
attr source packetDropReasonIsQueueOverflow(packetDropped)
attr title "packet drops: queue overflow, sum(packetBytes)"
scalar XHost_SpineLeaf_Network.spine[0].eth[3].mac.queue packetRemoved:count 0
attr interpolationmode none
attr title "packets removed, count"
scalar XHost_SpineLeaf_Network.spine[0].eth[3].mac.queue packetRemoved:sum(packetBytes) 0
attr interpolationmode none
attr title "packets removed, sum(packetBytes)"
scalar XHost_SpineLeaf_Network.spine[0].eth[3].mac "simulated time" 245.0001064
scalar XHost_SpineLeaf_Network.spine[0].eth[3].mac full-duplex 1
scalar XHost_SpineLeaf_Network.spine[0].eth[3].mac "frames/sec sent" 0
scalar XHost_SpineLeaf_Network.spine[0].eth[3].mac "frames/sec rcvd" 0
scalar XHost_SpineLeaf_Network.spine[0].eth[3].mac "bits/sec sent" 0
scalar XHost_SpineLeaf_Network.spine[0].eth[3].mac "bits/sec rcvd" 0
scalar XHost_SpineLeaf_Network.spine[0].eth[3].mac "rx channel idle (%)" 100
scalar XHost_SpineLeaf_Network.spine[0].eth[3].mac "rx channel utilization (%)" 0
scalar XHost_SpineLeaf_Network.spine[0].eth[3].mac txPk:count 0
attr interpolationmode none
attr source packetSentToLower
attr title "packets transmitted, count"
scalar XHost_SpineLeaf_Network.spine[0].eth[3].mac txPk:sum(packetBytes) 0
attr interpolationmode none
attr source packetSentToLower
attr title "packets transmitted, sum(packetBytes)"
scalar XHost_SpineLeaf_Network.spine[0].eth[3].mac packetReceivedFromUpper:count 0
attr interpolationmode none
attr source packetReceivedFromUpper
attr title "packet bytes from higher layer, count"
scalar XHost_SpineLeaf_Network.spine[0].eth[3].mac packetReceivedFromUpper:sum(packetBytes) 0
attr interpolationmode none
attr source packetReceivedFromUpper
attr title "packet bytes from higher layer, sum(packetBytes)"
scalar XHost_SpineLeaf_Network.spine[0].eth[3].mac passedUpPk:count 0
attr interpolationmode none
attr source packetSentToUpper
attr title "packets passed to higher layer, count"
scalar XHost_SpineLeaf_Network.spine[0].eth[3].mac passedUpPk:sum(packetBytes) 0
attr interpolationmode none
attr source packetSentToUpper
attr title "packets passed to higher layer, sum(packetBytes)"
scalar XHost_SpineLeaf_Network.spine[0].eth[3].mac packetDropIncorrectlyReceived:count 0
attr interpolationmode none
attr source packetDropReasonIsIncorrectlyReceived(packetDropped)
attr title "packet drop: incorrectly received, count"
scalar XHost_SpineLeaf_Network.spine[0].eth[3].mac packetDropIncorrectlyReceived:sum(packetBytes) 0
attr interpolationmode none
attr source packetDropReasonIsIncorrectlyReceived(packetDropped)
attr title "packet drop: incorrectly received, sum(packetBytes)"
scalar XHost_SpineLeaf_Network.spine[0].eth[3].mac packetDropInterfaceDown:count 0
attr interpolationmode none
attr source packetDropReasonIsInterfaceDown(packetDropped)
attr title "packet drop: interface down, count"
scalar XHost_SpineLeaf_Network.spine[0].eth[3].mac packetDropInterfaceDown:sum(packetBytes) 0
attr interpolationmode none
attr source packetDropReasonIsInterfaceDown(packetDropped)
attr title "packet drop: interface down, sum(packetBytes)"
scalar XHost_SpineLeaf_Network.spine[0].eth[3].mac packetDropNotAddressedToUs:count 0
attr interpolationmode none
attr source packetDropReasonIsNotAddressedToUs(packetDropped)
attr title "packet drop: not addressed to us, count"
scalar XHost_SpineLeaf_Network.spine[0].eth[3].mac packetDropNotAddressedToUs:sum(packetBytes) 0
attr interpolationmode none
attr source packetDropReasonIsNotAddressedToUs(packetDropped)
attr title "packet drop: not addressed to us, sum(packetBytes)"
scalar XHost_SpineLeaf_Network.spine[0].eth[3].mac rxPausePkUnits:count 0
attr interpolationmode none
attr title "pause units received, count"
scalar XHost_SpineLeaf_Network.spine[0].eth[3].mac rxPausePkUnits:sum 0
attr interpolationmode none
attr title "pause units received, sum"
scalar XHost_SpineLeaf_Network.spine[0].eth[3].mac txPausePkUnits:count 0
attr interpolationmode none
attr title "pause units sent, count"
scalar XHost_SpineLeaf_Network.spine[0].eth[3].mac txPausePkUnits:sum 0
attr interpolationmode none
attr title "pause units sent, sum"
scalar XHost_SpineLeaf_Network.spine[0].eth[3].mac rxPkOk:count 0
attr interpolationmode none
attr source rxPkOk
attr title "packets received OK, count"
scalar XHost_SpineLeaf_Network.spine[0].eth[3].mac rxPkOk:sum(packetBytes) 0
attr interpolationmode none
attr source rxPkOk
attr title "packets received OK, sum(packetBytes)"
scalar XHost_SpineLeaf_Network.spine[0].eth[3].encap pauseSent:count 0
attr title "pause sent, count"
scalar XHost_SpineLeaf_Network.spine[0].eth[3].encap pauseSent:sum 0
attr title "pause sent, sum"
scalar XHost_SpineLeaf_Network.spine[0].eth[3].encap decapPk:count 0
attr interpolationmode none
attr source decapPk
attr title "packets decapsulated, count"
scalar XHost_SpineLeaf_Network.spine[0].eth[3].encap decapPk:sum(packetBytes) 0
attr interpolationmode none
attr source decapPk
attr title "packets decapsulated, sum(packetBytes)"
scalar XHost_SpineLeaf_Network.spine[0].eth[3].encap encapPk:count 0
attr interpolationmode none
attr source encapPk
attr title "packets encapsulated, count"
scalar XHost_SpineLeaf_Network.spine[0].eth[3].encap encapPk:sum(packetBytes) 0
attr interpolationmode none
attr source encapPk
attr title "packets encapsulated, sum(packetBytes)"
scalar XHost_SpineLeaf_Network.spine[0].eth[4].mac.queue packetPopped:count 0
attr interpolationmode none
attr title "packet popped, count"
scalar XHost_SpineLeaf_Network.spine[0].eth[4].mac.queue packetPopped:sum(packetBytes) 0
attr interpolationmode none
attr title "packet popped, sum(packetBytes)"
statistic XHost_SpineLeaf_Network.spine[0].eth[4].mac.queue queueingTime:histogram
field count 0
field mean nan
field stddev nan
field min nan
field max nan
field sum 0
field sqrsum 0
attr interpolationmode none
attr source queueingTime(packetPopped)
attr title "queueing times, histogram"
attr unit s
bin	-inf	0
bin	0	0
bin	1	0
scalar XHost_SpineLeaf_Network.spine[0].eth[4].mac.queue queueLength:max nan
attr interpolationmode sample-hold
attr source "count(packetPushed) - count(packetPopped) - count(packetRemoved) - count(packetDropped)"
attr title "queue length, max"
scalar XHost_SpineLeaf_Network.spine[0].eth[4].mac.queue queueLength:timeavg nan
attr interpolationmode sample-hold
attr source "count(packetPushed) - count(packetPopped) - count(packetRemoved) - count(packetDropped)"
attr title "queue length, timeavg"
scalar XHost_SpineLeaf_Network.spine[0].eth[4].mac.queue packetPushed:count 0
attr interpolationmode none
attr title "packet pushed, count"
scalar XHost_SpineLeaf_Network.spine[0].eth[4].mac.queue packetPushed:sum(packetBytes) 0
attr interpolationmode none
attr title "packet pushed, sum(packetBytes)"
scalar XHost_SpineLeaf_Network.spine[0].eth[4].mac.queue packetDropQueueOverflow:count 0
attr interpolationmode none
attr source packetDropReasonIsQueueOverflow(packetDropped)
attr title "packet drops: queue overflow, count"
scalar XHost_SpineLeaf_Network.spine[0].eth[4].mac.queue packetDropQueueOverflow:sum(packetBytes) 0
attr interpolationmode none
attr source packetDropReasonIsQueueOverflow(packetDropped)
attr title "packet drops: queue overflow, sum(packetBytes)"
scalar XHost_SpineLeaf_Network.spine[0].eth[4].mac.queue packetRemoved:count 0
attr interpolationmode none
attr title "packets removed, count"
scalar XHost_SpineLeaf_Network.spine[0].eth[4].mac.queue packetRemoved:sum(packetBytes) 0
attr interpolationmode none
attr title "packets removed, sum(packetBytes)"
scalar XHost_SpineLeaf_Network.spine[0].eth[4].mac "simulated time" 245.0001064
scalar XHost_SpineLeaf_Network.spine[0].eth[4].mac full-duplex 1
scalar XHost_SpineLeaf_Network.spine[0].eth[4].mac "frames/sec sent" 0
scalar XHost_SpineLeaf_Network.spine[0].eth[4].mac "frames/sec rcvd" 0
scalar XHost_SpineLeaf_Network.spine[0].eth[4].mac "bits/sec sent" 0
scalar XHost_SpineLeaf_Network.spine[0].eth[4].mac "bits/sec rcvd" 0
scalar XHost_SpineLeaf_Network.spine[0].eth[4].mac "rx channel idle (%)" 100
scalar XHost_SpineLeaf_Network.spine[0].eth[4].mac "rx channel utilization (%)" 0
scalar XHost_SpineLeaf_Network.spine[0].eth[4].mac txPk:count 0
attr interpolationmode none
attr source packetSentToLower
attr title "packets transmitted, count"
scalar XHost_SpineLeaf_Network.spine[0].eth[4].mac txPk:sum(packetBytes) 0
attr interpolationmode none
attr source packetSentToLower
attr title "packets transmitted, sum(packetBytes)"
scalar XHost_SpineLeaf_Network.spine[0].eth[4].mac packetReceivedFromUpper:count 0
attr interpolationmode none
attr source packetReceivedFromUpper
attr title "packet bytes from higher layer, count"
scalar XHost_SpineLeaf_Network.spine[0].eth[4].mac packetReceivedFromUpper:sum(packetBytes) 0
attr interpolationmode none
attr source packetReceivedFromUpper
attr title "packet bytes from higher layer, sum(packetBytes)"
scalar XHost_SpineLeaf_Network.spine[0].eth[4].mac passedUpPk:count 0
attr interpolationmode none
attr source packetSentToUpper
attr title "packets passed to higher layer, count"
scalar XHost_SpineLeaf_Network.spine[0].eth[4].mac passedUpPk:sum(packetBytes) 0
attr interpolationmode none
attr source packetSentToUpper
attr title "packets passed to higher layer, sum(packetBytes)"
scalar XHost_SpineLeaf_Network.spine[0].eth[4].mac packetDropIncorrectlyReceived:count 0
attr interpolationmode none
attr source packetDropReasonIsIncorrectlyReceived(packetDropped)
attr title "packet drop: incorrectly received, count"
scalar XHost_SpineLeaf_Network.spine[0].eth[4].mac packetDropIncorrectlyReceived:sum(packetBytes) 0
attr interpolationmode none
attr source packetDropReasonIsIncorrectlyReceived(packetDropped)
attr title "packet drop: incorrectly received, sum(packetBytes)"
scalar XHost_SpineLeaf_Network.spine[0].eth[4].mac packetDropInterfaceDown:count 0
attr interpolationmode none
attr source packetDropReasonIsInterfaceDown(packetDropped)
attr title "packet drop: interface down, count"
scalar XHost_SpineLeaf_Network.spine[0].eth[4].mac packetDropInterfaceDown:sum(packetBytes) 0
attr interpolationmode none
attr source packetDropReasonIsInterfaceDown(packetDropped)
attr title "packet drop: interface down, sum(packetBytes)"
scalar XHost_SpineLeaf_Network.spine[0].eth[4].mac packetDropNotAddressedToUs:count 0
attr interpolationmode none
attr source packetDropReasonIsNotAddressedToUs(packetDropped)
attr title "packet drop: not addressed to us, count"
scalar XHost_SpineLeaf_Network.spine[0].eth[4].mac packetDropNotAddressedToUs:sum(packetBytes) 0
attr interpolationmode none
attr source packetDropReasonIsNotAddressedToUs(packetDropped)
attr title "packet drop: not addressed to us, sum(packetBytes)"
scalar XHost_SpineLeaf_Network.spine[0].eth[4].mac rxPausePkUnits:count 0
attr interpolationmode none
attr title "pause units received, count"
scalar XHost_SpineLeaf_Network.spine[0].eth[4].mac rxPausePkUnits:sum 0
attr interpolationmode none
attr title "pause units received, sum"
scalar XHost_SpineLeaf_Network.spine[0].eth[4].mac txPausePkUnits:count 0
attr interpolationmode none
attr title "pause units sent, count"
scalar XHost_SpineLeaf_Network.spine[0].eth[4].mac txPausePkUnits:sum 0
attr interpolationmode none
attr title "pause units sent, sum"
scalar XHost_SpineLeaf_Network.spine[0].eth[4].mac rxPkOk:count 0
attr interpolationmode none
attr source rxPkOk
attr title "packets received OK, count"
scalar XHost_SpineLeaf_Network.spine[0].eth[4].mac rxPkOk:sum(packetBytes) 0
attr interpolationmode none
attr source rxPkOk
attr title "packets received OK, sum(packetBytes)"
scalar XHost_SpineLeaf_Network.spine[0].eth[4].encap pauseSent:count 0
attr title "pause sent, count"
scalar XHost_SpineLeaf_Network.spine[0].eth[4].encap pauseSent:sum 0
attr title "pause sent, sum"
scalar XHost_SpineLeaf_Network.spine[0].eth[4].encap decapPk:count 0
attr interpolationmode none
attr source decapPk
attr title "packets decapsulated, count"
scalar XHost_SpineLeaf_Network.spine[0].eth[4].encap decapPk:sum(packetBytes) 0
attr interpolationmode none
attr source decapPk
attr title "packets decapsulated, sum(packetBytes)"
scalar XHost_SpineLeaf_Network.spine[0].eth[4].encap encapPk:count 0
attr interpolationmode none
attr source encapPk
attr title "packets encapsulated, count"
scalar XHost_SpineLeaf_Network.spine[0].eth[4].encap encapPk:sum(packetBytes) 0
attr interpolationmode none
attr source encapPk
attr title "packets encapsulated, sum(packetBytes)"
scalar XHost_SpineLeaf_Network.spine[0].eth[5].mac.queue packetPopped:count 0
attr interpolationmode none
attr title "packet popped, count"
scalar XHost_SpineLeaf_Network.spine[0].eth[5].mac.queue packetPopped:sum(packetBytes) 0
attr interpolationmode none
attr title "packet popped, sum(packetBytes)"
statistic XHost_SpineLeaf_Network.spine[0].eth[5].mac.queue queueingTime:histogram
field count 0
field mean nan
field stddev nan
field min nan
field max nan
field sum 0
field sqrsum 0
attr interpolationmode none
attr source queueingTime(packetPopped)
attr title "queueing times, histogram"
attr unit s
bin	-inf	0
bin	0	0
bin	1	0
scalar XHost_SpineLeaf_Network.spine[0].eth[5].mac.queue queueLength:max nan
attr interpolationmode sample-hold
attr source "count(packetPushed) - count(packetPopped) - count(packetRemoved) - count(packetDropped)"
attr title "queue length, max"
scalar XHost_SpineLeaf_Network.spine[0].eth[5].mac.queue queueLength:timeavg nan
attr interpolationmode sample-hold
attr source "count(packetPushed) - count(packetPopped) - count(packetRemoved) - count(packetDropped)"
attr title "queue length, timeavg"
scalar XHost_SpineLeaf_Network.spine[0].eth[5].mac.queue packetPushed:count 0
attr interpolationmode none
attr title "packet pushed, count"
scalar XHost_SpineLeaf_Network.spine[0].eth[5].mac.queue packetPushed:sum(packetBytes) 0
attr interpolationmode none
attr title "packet pushed, sum(packetBytes)"
scalar XHost_SpineLeaf_Network.spine[0].eth[5].mac.queue packetDropQueueOverflow:count 0
attr interpolationmode none
attr source packetDropReasonIsQueueOverflow(packetDropped)
attr title "packet drops: queue overflow, count"
scalar XHost_SpineLeaf_Network.spine[0].eth[5].mac.queue packetDropQueueOverflow:sum(packetBytes) 0
attr interpolationmode none
attr source packetDropReasonIsQueueOverflow(packetDropped)
attr title "packet drops: queue overflow, sum(packetBytes)"
scalar XHost_SpineLeaf_Network.spine[0].eth[5].mac.queue packetRemoved:count 0
attr interpolationmode none
attr title "packets removed, count"
scalar XHost_SpineLeaf_Network.spine[0].eth[5].mac.queue packetRemoved:sum(packetBytes) 0
attr interpolationmode none
attr title "packets removed, sum(packetBytes)"
scalar XHost_SpineLeaf_Network.spine[0].eth[5].mac "simulated time" 245.0001064
scalar XHost_SpineLeaf_Network.spine[0].eth[5].mac full-duplex 1
scalar XHost_SpineLeaf_Network.spine[0].eth[5].mac "frames/sec sent" 0
scalar XHost_SpineLeaf_Network.spine[0].eth[5].mac "frames/sec rcvd" 0
scalar XHost_SpineLeaf_Network.spine[0].eth[5].mac "bits/sec sent" 0
scalar XHost_SpineLeaf_Network.spine[0].eth[5].mac "bits/sec rcvd" 0
scalar XHost_SpineLeaf_Network.spine[0].eth[5].mac "rx channel idle (%)" 100
scalar XHost_SpineLeaf_Network.spine[0].eth[5].mac "rx channel utilization (%)" 0
scalar XHost_SpineLeaf_Network.spine[0].eth[5].mac txPk:count 0
attr interpolationmode none
attr source packetSentToLower
attr title "packets transmitted, count"
scalar XHost_SpineLeaf_Network.spine[0].eth[5].mac txPk:sum(packetBytes) 0
attr interpolationmode none
attr source packetSentToLower
attr title "packets transmitted, sum(packetBytes)"
scalar XHost_SpineLeaf_Network.spine[0].eth[5].mac packetReceivedFromUpper:count 0
attr interpolationmode none
attr source packetReceivedFromUpper
attr title "packet bytes from higher layer, count"
scalar XHost_SpineLeaf_Network.spine[0].eth[5].mac packetReceivedFromUpper:sum(packetBytes) 0
attr interpolationmode none
attr source packetReceivedFromUpper
attr title "packet bytes from higher layer, sum(packetBytes)"
scalar XHost_SpineLeaf_Network.spine[0].eth[5].mac passedUpPk:count 0
attr interpolationmode none
attr source packetSentToUpper
attr title "packets passed to higher layer, count"
scalar XHost_SpineLeaf_Network.spine[0].eth[5].mac passedUpPk:sum(packetBytes) 0
attr interpolationmode none
attr source packetSentToUpper
attr title "packets passed to higher layer, sum(packetBytes)"
scalar XHost_SpineLeaf_Network.spine[0].eth[5].mac packetDropIncorrectlyReceived:count 0
attr interpolationmode none
attr source packetDropReasonIsIncorrectlyReceived(packetDropped)
attr title "packet drop: incorrectly received, count"
scalar XHost_SpineLeaf_Network.spine[0].eth[5].mac packetDropIncorrectlyReceived:sum(packetBytes) 0
attr interpolationmode none
attr source packetDropReasonIsIncorrectlyReceived(packetDropped)
attr title "packet drop: incorrectly received, sum(packetBytes)"
scalar XHost_SpineLeaf_Network.spine[0].eth[5].mac packetDropInterfaceDown:count 0
attr interpolationmode none
attr source packetDropReasonIsInterfaceDown(packetDropped)
attr title "packet drop: interface down, count"
scalar XHost_SpineLeaf_Network.spine[0].eth[5].mac packetDropInterfaceDown:sum(packetBytes) 0
attr interpolationmode none
attr source packetDropReasonIsInterfaceDown(packetDropped)
attr title "packet drop: interface down, sum(packetBytes)"
scalar XHost_SpineLeaf_Network.spine[0].eth[5].mac packetDropNotAddressedToUs:count 0
attr interpolationmode none
attr source packetDropReasonIsNotAddressedToUs(packetDropped)
attr title "packet drop: not addressed to us, count"
scalar XHost_SpineLeaf_Network.spine[0].eth[5].mac packetDropNotAddressedToUs:sum(packetBytes) 0
attr interpolationmode none
attr source packetDropReasonIsNotAddressedToUs(packetDropped)
attr title "packet drop: not addressed to us, sum(packetBytes)"
scalar XHost_SpineLeaf_Network.spine[0].eth[5].mac rxPausePkUnits:count 0
attr interpolationmode none
attr title "pause units received, count"
scalar XHost_SpineLeaf_Network.spine[0].eth[5].mac rxPausePkUnits:sum 0
attr interpolationmode none
attr title "pause units received, sum"
scalar XHost_SpineLeaf_Network.spine[0].eth[5].mac txPausePkUnits:count 0
attr interpolationmode none
attr title "pause units sent, count"
scalar XHost_SpineLeaf_Network.spine[0].eth[5].mac txPausePkUnits:sum 0
attr interpolationmode none
attr title "pause units sent, sum"
scalar XHost_SpineLeaf_Network.spine[0].eth[5].mac rxPkOk:count 0
attr interpolationmode none
attr source rxPkOk
attr title "packets received OK, count"
scalar XHost_SpineLeaf_Network.spine[0].eth[5].mac rxPkOk:sum(packetBytes) 0
attr interpolationmode none
attr source rxPkOk
attr title "packets received OK, sum(packetBytes)"
scalar XHost_SpineLeaf_Network.spine[0].eth[5].encap pauseSent:count 0
attr title "pause sent, count"
scalar XHost_SpineLeaf_Network.spine[0].eth[5].encap pauseSent:sum 0
attr title "pause sent, sum"
scalar XHost_SpineLeaf_Network.spine[0].eth[5].encap decapPk:count 0
attr interpolationmode none
attr source decapPk
attr title "packets decapsulated, count"
scalar XHost_SpineLeaf_Network.spine[0].eth[5].encap decapPk:sum(packetBytes) 0
attr interpolationmode none
attr source decapPk
attr title "packets decapsulated, sum(packetBytes)"
scalar XHost_SpineLeaf_Network.spine[0].eth[5].encap encapPk:count 0
attr interpolationmode none
attr source encapPk
attr title "packets encapsulated, count"
scalar XHost_SpineLeaf_Network.spine[0].eth[5].encap encapPk:sum(packetBytes) 0
attr interpolationmode none
attr source encapPk
attr title "packets encapsulated, sum(packetBytes)"
scalar XHost_SpineLeaf_Network.spine[0].eth[6].mac.queue packetPopped:count 0
attr interpolationmode none
attr title "packet popped, count"
scalar XHost_SpineLeaf_Network.spine[0].eth[6].mac.queue packetPopped:sum(packetBytes) 0
attr interpolationmode none
attr title "packet popped, sum(packetBytes)"
statistic XHost_SpineLeaf_Network.spine[0].eth[6].mac.queue queueingTime:histogram
field count 0
field mean nan
field stddev nan
field min nan
field max nan
field sum 0
field sqrsum 0
attr interpolationmode none
attr source queueingTime(packetPopped)
attr title "queueing times, histogram"
attr unit s
bin	-inf	0
bin	0	0
bin	1	0
scalar XHost_SpineLeaf_Network.spine[0].eth[6].mac.queue queueLength:max nan
attr interpolationmode sample-hold
attr source "count(packetPushed) - count(packetPopped) - count(packetRemoved) - count(packetDropped)"
attr title "queue length, max"
scalar XHost_SpineLeaf_Network.spine[0].eth[6].mac.queue queueLength:timeavg nan
attr interpolationmode sample-hold
attr source "count(packetPushed) - count(packetPopped) - count(packetRemoved) - count(packetDropped)"
attr title "queue length, timeavg"
scalar XHost_SpineLeaf_Network.spine[0].eth[6].mac.queue packetPushed:count 0
attr interpolationmode none
attr title "packet pushed, count"
scalar XHost_SpineLeaf_Network.spine[0].eth[6].mac.queue packetPushed:sum(packetBytes) 0
attr interpolationmode none
attr title "packet pushed, sum(packetBytes)"
scalar XHost_SpineLeaf_Network.spine[0].eth[6].mac.queue packetDropQueueOverflow:count 0
attr interpolationmode none
attr source packetDropReasonIsQueueOverflow(packetDropped)
attr title "packet drops: queue overflow, count"
scalar XHost_SpineLeaf_Network.spine[0].eth[6].mac.queue packetDropQueueOverflow:sum(packetBytes) 0
attr interpolationmode none
attr source packetDropReasonIsQueueOverflow(packetDropped)
attr title "packet drops: queue overflow, sum(packetBytes)"
scalar XHost_SpineLeaf_Network.spine[0].eth[6].mac.queue packetRemoved:count 0
attr interpolationmode none
attr title "packets removed, count"
scalar XHost_SpineLeaf_Network.spine[0].eth[6].mac.queue packetRemoved:sum(packetBytes) 0
attr interpolationmode none
attr title "packets removed, sum(packetBytes)"
scalar XHost_SpineLeaf_Network.spine[0].eth[6].mac "simulated time" 245.0001064
scalar XHost_SpineLeaf_Network.spine[0].eth[6].mac full-duplex 1
scalar XHost_SpineLeaf_Network.spine[0].eth[6].mac "frames/sec sent" 0
scalar XHost_SpineLeaf_Network.spine[0].eth[6].mac "frames/sec rcvd" 0
scalar XHost_SpineLeaf_Network.spine[0].eth[6].mac "bits/sec sent" 0
scalar XHost_SpineLeaf_Network.spine[0].eth[6].mac "bits/sec rcvd" 0
scalar XHost_SpineLeaf_Network.spine[0].eth[6].mac "rx channel idle (%)" 100
scalar XHost_SpineLeaf_Network.spine[0].eth[6].mac "rx channel utilization (%)" 0
scalar XHost_SpineLeaf_Network.spine[0].eth[6].mac txPk:count 0
attr interpolationmode none
attr source packetSentToLower
attr title "packets transmitted, count"
scalar XHost_SpineLeaf_Network.spine[0].eth[6].mac txPk:sum(packetBytes) 0
attr interpolationmode none
attr source packetSentToLower
attr title "packets transmitted, sum(packetBytes)"
scalar XHost_SpineLeaf_Network.spine[0].eth[6].mac packetReceivedFromUpper:count 0
attr interpolationmode none
attr source packetReceivedFromUpper
attr title "packet bytes from higher layer, count"
scalar XHost_SpineLeaf_Network.spine[0].eth[6].mac packetReceivedFromUpper:sum(packetBytes) 0
attr interpolationmode none
attr source packetReceivedFromUpper
attr title "packet bytes from higher layer, sum(packetBytes)"
scalar XHost_SpineLeaf_Network.spine[0].eth[6].mac passedUpPk:count 0
attr interpolationmode none
attr source packetSentToUpper
attr title "packets passed to higher layer, count"
scalar XHost_SpineLeaf_Network.spine[0].eth[6].mac passedUpPk:sum(packetBytes) 0
attr interpolationmode none
attr source packetSentToUpper
attr title "packets passed to higher layer, sum(packetBytes)"
scalar XHost_SpineLeaf_Network.spine[0].eth[6].mac packetDropIncorrectlyReceived:count 0
attr interpolationmode none
attr source packetDropReasonIsIncorrectlyReceived(packetDropped)
attr title "packet drop: incorrectly received, count"
scalar XHost_SpineLeaf_Network.spine[0].eth[6].mac packetDropIncorrectlyReceived:sum(packetBytes) 0
attr interpolationmode none
attr source packetDropReasonIsIncorrectlyReceived(packetDropped)
attr title "packet drop: incorrectly received, sum(packetBytes)"
scalar XHost_SpineLeaf_Network.spine[0].eth[6].mac packetDropInterfaceDown:count 0
attr interpolationmode none
attr source packetDropReasonIsInterfaceDown(packetDropped)
attr title "packet drop: interface down, count"
scalar XHost_SpineLeaf_Network.spine[0].eth[6].mac packetDropInterfaceDown:sum(packetBytes) 0
attr interpolationmode none
attr source packetDropReasonIsInterfaceDown(packetDropped)
attr title "packet drop: interface down, sum(packetBytes)"
scalar XHost_SpineLeaf_Network.spine[0].eth[6].mac packetDropNotAddressedToUs:count 0
attr interpolationmode none
attr source packetDropReasonIsNotAddressedToUs(packetDropped)
attr title "packet drop: not addressed to us, count"
scalar XHost_SpineLeaf_Network.spine[0].eth[6].mac packetDropNotAddressedToUs:sum(packetBytes) 0
attr interpolationmode none
attr source packetDropReasonIsNotAddressedToUs(packetDropped)
attr title "packet drop: not addressed to us, sum(packetBytes)"
scalar XHost_SpineLeaf_Network.spine[0].eth[6].mac rxPausePkUnits:count 0
attr interpolationmode none
attr title "pause units received, count"
scalar XHost_SpineLeaf_Network.spine[0].eth[6].mac rxPausePkUnits:sum 0
attr interpolationmode none
attr title "pause units received, sum"
scalar XHost_SpineLeaf_Network.spine[0].eth[6].mac txPausePkUnits:count 0
attr interpolationmode none
attr title "pause units sent, count"
scalar XHost_SpineLeaf_Network.spine[0].eth[6].mac txPausePkUnits:sum 0
attr interpolationmode none
attr title "pause units sent, sum"
scalar XHost_SpineLeaf_Network.spine[0].eth[6].mac rxPkOk:count 0
attr interpolationmode none
attr source rxPkOk
attr title "packets received OK, count"
scalar XHost_SpineLeaf_Network.spine[0].eth[6].mac rxPkOk:sum(packetBytes) 0
attr interpolationmode none
attr source rxPkOk
attr title "packets received OK, sum(packetBytes)"
scalar XHost_SpineLeaf_Network.spine[0].eth[6].encap pauseSent:count 0
attr title "pause sent, count"
scalar XHost_SpineLeaf_Network.spine[0].eth[6].encap pauseSent:sum 0
attr title "pause sent, sum"
scalar XHost_SpineLeaf_Network.spine[0].eth[6].encap decapPk:count 0
attr interpolationmode none
attr source decapPk
attr title "packets decapsulated, count"
scalar XHost_SpineLeaf_Network.spine[0].eth[6].encap decapPk:sum(packetBytes) 0
attr interpolationmode none
attr source decapPk
attr title "packets decapsulated, sum(packetBytes)"
scalar XHost_SpineLeaf_Network.spine[0].eth[6].encap encapPk:count 0
attr interpolationmode none
attr source encapPk
attr title "packets encapsulated, count"
scalar XHost_SpineLeaf_Network.spine[0].eth[6].encap encapPk:sum(packetBytes) 0
attr interpolationmode none
attr source encapPk
attr title "packets encapsulated, sum(packetBytes)"
scalar XHost_SpineLeaf_Network.spine[0].eth[7].mac.queue packetPopped:count 0
attr interpolationmode none
attr title "packet popped, count"
scalar XHost_SpineLeaf_Network.spine[0].eth[7].mac.queue packetPopped:sum(packetBytes) 0
attr interpolationmode none
attr title "packet popped, sum(packetBytes)"
statistic XHost_SpineLeaf_Network.spine[0].eth[7].mac.queue queueingTime:histogram
field count 0
field mean nan
field stddev nan
field min nan
field max nan
field sum 0
field sqrsum 0
attr interpolationmode none
attr source queueingTime(packetPopped)
attr title "queueing times, histogram"
attr unit s
bin	-inf	0
bin	0	0
bin	1	0
scalar XHost_SpineLeaf_Network.spine[0].eth[7].mac.queue queueLength:max nan
attr interpolationmode sample-hold
attr source "count(packetPushed) - count(packetPopped) - count(packetRemoved) - count(packetDropped)"
attr title "queue length, max"
scalar XHost_SpineLeaf_Network.spine[0].eth[7].mac.queue queueLength:timeavg nan
attr interpolationmode sample-hold
attr source "count(packetPushed) - count(packetPopped) - count(packetRemoved) - count(packetDropped)"
attr title "queue length, timeavg"
scalar XHost_SpineLeaf_Network.spine[0].eth[7].mac.queue packetPushed:count 0
attr interpolationmode none
attr title "packet pushed, count"
scalar XHost_SpineLeaf_Network.spine[0].eth[7].mac.queue packetPushed:sum(packetBytes) 0
attr interpolationmode none
attr title "packet pushed, sum(packetBytes)"
scalar XHost_SpineLeaf_Network.spine[0].eth[7].mac.queue packetDropQueueOverflow:count 0
attr interpolationmode none
attr source packetDropReasonIsQueueOverflow(packetDropped)
attr title "packet drops: queue overflow, count"
scalar XHost_SpineLeaf_Network.spine[0].eth[7].mac.queue packetDropQueueOverflow:sum(packetBytes) 0
attr interpolationmode none
attr source packetDropReasonIsQueueOverflow(packetDropped)
attr title "packet drops: queue overflow, sum(packetBytes)"
scalar XHost_SpineLeaf_Network.spine[0].eth[7].mac.queue packetRemoved:count 0
attr interpolationmode none
attr title "packets removed, count"
scalar XHost_SpineLeaf_Network.spine[0].eth[7].mac.queue packetRemoved:sum(packetBytes) 0
attr interpolationmode none
attr title "packets removed, sum(packetBytes)"
scalar XHost_SpineLeaf_Network.spine[0].eth[7].mac "simulated time" 245.0001064
scalar XHost_SpineLeaf_Network.spine[0].eth[7].mac full-duplex 1
scalar XHost_SpineLeaf_Network.spine[0].eth[7].mac "frames/sec sent" 0
scalar XHost_SpineLeaf_Network.spine[0].eth[7].mac "frames/sec rcvd" 0
scalar XHost_SpineLeaf_Network.spine[0].eth[7].mac "bits/sec sent" 0
scalar XHost_SpineLeaf_Network.spine[0].eth[7].mac "bits/sec rcvd" 0
scalar XHost_SpineLeaf_Network.spine[0].eth[7].mac "rx channel idle (%)" 100
scalar XHost_SpineLeaf_Network.spine[0].eth[7].mac "rx channel utilization (%)" 0
scalar XHost_SpineLeaf_Network.spine[0].eth[7].mac txPk:count 0
attr interpolationmode none
attr source packetSentToLower
attr title "packets transmitted, count"
scalar XHost_SpineLeaf_Network.spine[0].eth[7].mac txPk:sum(packetBytes) 0
attr interpolationmode none
attr source packetSentToLower
attr title "packets transmitted, sum(packetBytes)"
scalar XHost_SpineLeaf_Network.spine[0].eth[7].mac packetReceivedFromUpper:count 0
attr interpolationmode none
attr source packetReceivedFromUpper
attr title "packet bytes from higher layer, count"
scalar XHost_SpineLeaf_Network.spine[0].eth[7].mac packetReceivedFromUpper:sum(packetBytes) 0
attr interpolationmode none
attr source packetReceivedFromUpper
attr title "packet bytes from higher layer, sum(packetBytes)"
scalar XHost_SpineLeaf_Network.spine[0].eth[7].mac passedUpPk:count 0
attr interpolationmode none
attr source packetSentToUpper
attr title "packets passed to higher layer, count"
scalar XHost_SpineLeaf_Network.spine[0].eth[7].mac passedUpPk:sum(packetBytes) 0
attr interpolationmode none
attr source packetSentToUpper
attr title "packets passed to higher layer, sum(packetBytes)"
scalar XHost_SpineLeaf_Network.spine[0].eth[7].mac packetDropIncorrectlyReceived:count 0
attr interpolationmode none
attr source packetDropReasonIsIncorrectlyReceived(packetDropped)
attr title "packet drop: incorrectly received, count"
scalar XHost_SpineLeaf_Network.spine[0].eth[7].mac packetDropIncorrectlyReceived:sum(packetBytes) 0
attr interpolationmode none
attr source packetDropReasonIsIncorrectlyReceived(packetDropped)
attr title "packet drop: incorrectly received, sum(packetBytes)"
scalar XHost_SpineLeaf_Network.spine[0].eth[7].mac packetDropInterfaceDown:count 0
attr interpolationmode none
attr source packetDropReasonIsInterfaceDown(packetDropped)
attr title "packet drop: interface down, count"
scalar XHost_SpineLeaf_Network.spine[0].eth[7].mac packetDropInterfaceDown:sum(packetBytes) 0
attr interpolationmode none
attr source packetDropReasonIsInterfaceDown(packetDropped)
attr title "packet drop: interface down, sum(packetBytes)"
scalar XHost_SpineLeaf_Network.spine[0].eth[7].mac packetDropNotAddressedToUs:count 0
attr interpolationmode none
attr source packetDropReasonIsNotAddressedToUs(packetDropped)
attr title "packet drop: not addressed to us, count"
scalar XHost_SpineLeaf_Network.spine[0].eth[7].mac packetDropNotAddressedToUs:sum(packetBytes) 0
attr interpolationmode none
attr source packetDropReasonIsNotAddressedToUs(packetDropped)
attr title "packet drop: not addressed to us, sum(packetBytes)"
scalar XHost_SpineLeaf_Network.spine[0].eth[7].mac rxPausePkUnits:count 0
attr interpolationmode none
attr title "pause units received, count"
scalar XHost_SpineLeaf_Network.spine[0].eth[7].mac rxPausePkUnits:sum 0
attr interpolationmode none
attr title "pause units received, sum"
scalar XHost_SpineLeaf_Network.spine[0].eth[7].mac txPausePkUnits:count 0
attr interpolationmode none
attr title "pause units sent, count"
scalar XHost_SpineLeaf_Network.spine[0].eth[7].mac txPausePkUnits:sum 0
attr interpolationmode none
attr title "pause units sent, sum"
scalar XHost_SpineLeaf_Network.spine[0].eth[7].mac rxPkOk:count 0
attr interpolationmode none
attr source rxPkOk
attr title "packets received OK, count"
scalar XHost_SpineLeaf_Network.spine[0].eth[7].mac rxPkOk:sum(packetBytes) 0
attr interpolationmode none
attr source rxPkOk
attr title "packets received OK, sum(packetBytes)"
scalar XHost_SpineLeaf_Network.spine[0].eth[7].encap pauseSent:count 0
attr title "pause sent, count"
scalar XHost_SpineLeaf_Network.spine[0].eth[7].encap pauseSent:sum 0
attr title "pause sent, sum"
scalar XHost_SpineLeaf_Network.spine[0].eth[7].encap decapPk:count 0
attr interpolationmode none
attr source decapPk
attr title "packets decapsulated, count"
scalar XHost_SpineLeaf_Network.spine[0].eth[7].encap decapPk:sum(packetBytes) 0
attr interpolationmode none
attr source decapPk
attr title "packets decapsulated, sum(packetBytes)"
scalar XHost_SpineLeaf_Network.spine[0].eth[7].encap encapPk:count 0
attr interpolationmode none
attr source encapPk
attr title "packets encapsulated, count"
scalar XHost_SpineLeaf_Network.spine[0].eth[7].encap encapPk:sum(packetBytes) 0
attr interpolationmode none
attr source encapPk
attr title "packets encapsulated, sum(packetBytes)"
scalar XHost_SpineLeaf_Network.spine[0].eth[8].mac.queue packetPopped:count 0
attr interpolationmode none
attr title "packet popped, count"
scalar XHost_SpineLeaf_Network.spine[0].eth[8].mac.queue packetPopped:sum(packetBytes) 0
attr interpolationmode none
attr title "packet popped, sum(packetBytes)"
statistic XHost_SpineLeaf_Network.spine[0].eth[8].mac.queue queueingTime:histogram
field count 0
field mean nan
field stddev nan
field min nan
field max nan
field sum 0
field sqrsum 0
attr interpolationmode none
attr source queueingTime(packetPopped)
attr title "queueing times, histogram"
attr unit s
bin	-inf	0
bin	0	0
bin	1	0
scalar XHost_SpineLeaf_Network.spine[0].eth[8].mac.queue queueLength:max nan
attr interpolationmode sample-hold
attr source "count(packetPushed) - count(packetPopped) - count(packetRemoved) - count(packetDropped)"
attr title "queue length, max"
scalar XHost_SpineLeaf_Network.spine[0].eth[8].mac.queue queueLength:timeavg nan
attr interpolationmode sample-hold
attr source "count(packetPushed) - count(packetPopped) - count(packetRemoved) - count(packetDropped)"
attr title "queue length, timeavg"
scalar XHost_SpineLeaf_Network.spine[0].eth[8].mac.queue packetPushed:count 0
attr interpolationmode none
attr title "packet pushed, count"
scalar XHost_SpineLeaf_Network.spine[0].eth[8].mac.queue packetPushed:sum(packetBytes) 0
attr interpolationmode none
attr title "packet pushed, sum(packetBytes)"
scalar XHost_SpineLeaf_Network.spine[0].eth[8].mac.queue packetDropQueueOverflow:count 0
attr interpolationmode none
attr source packetDropReasonIsQueueOverflow(packetDropped)
attr title "packet drops: queue overflow, count"
scalar XHost_SpineLeaf_Network.spine[0].eth[8].mac.queue packetDropQueueOverflow:sum(packetBytes) 0
attr interpolationmode none
attr source packetDropReasonIsQueueOverflow(packetDropped)
attr title "packet drops: queue overflow, sum(packetBytes)"
scalar XHost_SpineLeaf_Network.spine[0].eth[8].mac.queue packetRemoved:count 0
attr interpolationmode none
attr title "packets removed, count"
scalar XHost_SpineLeaf_Network.spine[0].eth[8].mac.queue packetRemoved:sum(packetBytes) 0
attr interpolationmode none
attr title "packets removed, sum(packetBytes)"
scalar XHost_SpineLeaf_Network.spine[0].eth[8].mac "simulated time" 245.0001064
scalar XHost_SpineLeaf_Network.spine[0].eth[8].mac full-duplex 1
scalar XHost_SpineLeaf_Network.spine[0].eth[8].mac "frames/sec sent" 0
scalar XHost_SpineLeaf_Network.spine[0].eth[8].mac "frames/sec rcvd" 0
scalar XHost_SpineLeaf_Network.spine[0].eth[8].mac "bits/sec sent" 0
scalar XHost_SpineLeaf_Network.spine[0].eth[8].mac "bits/sec rcvd" 0
scalar XHost_SpineLeaf_Network.spine[0].eth[8].mac "rx channel idle (%)" 100
scalar XHost_SpineLeaf_Network.spine[0].eth[8].mac "rx channel utilization (%)" 0
scalar XHost_SpineLeaf_Network.spine[0].eth[8].mac txPk:count 0
attr interpolationmode none
attr source packetSentToLower
attr title "packets transmitted, count"
scalar XHost_SpineLeaf_Network.spine[0].eth[8].mac txPk:sum(packetBytes) 0
attr interpolationmode none
attr source packetSentToLower
attr title "packets transmitted, sum(packetBytes)"
scalar XHost_SpineLeaf_Network.spine[0].eth[8].mac packetReceivedFromUpper:count 0
attr interpolationmode none
attr source packetReceivedFromUpper
attr title "packet bytes from higher layer, count"
scalar XHost_SpineLeaf_Network.spine[0].eth[8].mac packetReceivedFromUpper:sum(packetBytes) 0
attr interpolationmode none
attr source packetReceivedFromUpper
attr title "packet bytes from higher layer, sum(packetBytes)"
scalar XHost_SpineLeaf_Network.spine[0].eth[8].mac passedUpPk:count 0
attr interpolationmode none
attr source packetSentToUpper
attr title "packets passed to higher layer, count"
scalar XHost_SpineLeaf_Network.spine[0].eth[8].mac passedUpPk:sum(packetBytes) 0
attr interpolationmode none
attr source packetSentToUpper
attr title "packets passed to higher layer, sum(packetBytes)"
scalar XHost_SpineLeaf_Network.spine[0].eth[8].mac packetDropIncorrectlyReceived:count 0
attr interpolationmode none
attr source packetDropReasonIsIncorrectlyReceived(packetDropped)
attr title "packet drop: incorrectly received, count"
scalar XHost_SpineLeaf_Network.spine[0].eth[8].mac packetDropIncorrectlyReceived:sum(packetBytes) 0
attr interpolationmode none
attr source packetDropReasonIsIncorrectlyReceived(packetDropped)
attr title "packet drop: incorrectly received, sum(packetBytes)"
scalar XHost_SpineLeaf_Network.spine[0].eth[8].mac packetDropInterfaceDown:count 0
attr interpolationmode none
attr source packetDropReasonIsInterfaceDown(packetDropped)
attr title "packet drop: interface down, count"
scalar XHost_SpineLeaf_Network.spine[0].eth[8].mac packetDropInterfaceDown:sum(packetBytes) 0
attr interpolationmode none
attr source packetDropReasonIsInterfaceDown(packetDropped)
attr title "packet drop: interface down, sum(packetBytes)"
scalar XHost_SpineLeaf_Network.spine[0].eth[8].mac packetDropNotAddressedToUs:count 0
attr interpolationmode none
attr source packetDropReasonIsNotAddressedToUs(packetDropped)
attr title "packet drop: not addressed to us, count"
scalar XHost_SpineLeaf_Network.spine[0].eth[8].mac packetDropNotAddressedToUs:sum(packetBytes) 0
attr interpolationmode none
attr source packetDropReasonIsNotAddressedToUs(packetDropped)
attr title "packet drop: not addressed to us, sum(packetBytes)"
scalar XHost_SpineLeaf_Network.spine[0].eth[8].mac rxPausePkUnits:count 0
attr interpolationmode none
attr title "pause units received, count"
scalar XHost_SpineLeaf_Network.spine[0].eth[8].mac rxPausePkUnits:sum 0
attr interpolationmode none
attr title "pause units received, sum"
scalar XHost_SpineLeaf_Network.spine[0].eth[8].mac txPausePkUnits:count 0
attr interpolationmode none
attr title "pause units sent, count"
scalar XHost_SpineLeaf_Network.spine[0].eth[8].mac txPausePkUnits:sum 0
attr interpolationmode none
attr title "pause units sent, sum"
scalar XHost_SpineLeaf_Network.spine[0].eth[8].mac rxPkOk:count 0
attr interpolationmode none
attr source rxPkOk
attr title "packets received OK, count"
scalar XHost_SpineLeaf_Network.spine[0].eth[8].mac rxPkOk:sum(packetBytes) 0
attr interpolationmode none
attr source rxPkOk
attr title "packets received OK, sum(packetBytes)"
scalar XHost_SpineLeaf_Network.spine[0].eth[8].encap pauseSent:count 0
attr title "pause sent, count"
scalar XHost_SpineLeaf_Network.spine[0].eth[8].encap pauseSent:sum 0
attr title "pause sent, sum"
scalar XHost_SpineLeaf_Network.spine[0].eth[8].encap decapPk:count 0
attr interpolationmode none
attr source decapPk
attr title "packets decapsulated, count"
scalar XHost_SpineLeaf_Network.spine[0].eth[8].encap decapPk:sum(packetBytes) 0
attr interpolationmode none
attr source decapPk
attr title "packets decapsulated, sum(packetBytes)"
scalar XHost_SpineLeaf_Network.spine[0].eth[8].encap encapPk:count 0
attr interpolationmode none
attr source encapPk
attr title "packets encapsulated, count"
scalar XHost_SpineLeaf_Network.spine[0].eth[8].encap encapPk:sum(packetBytes) 0
attr interpolationmode none
attr source encapPk
attr title "packets encapsulated, sum(packetBytes)"
scalar XHost_SpineLeaf_Network.spine[0].ipv4.ip packetDropAddressResolutionFailed:count 0
attr interpolationmode none
attr source packetDropReasonIsAddressResolutionFailed(packetDropped)
attr title "packet drop: address resolution failed, count"
scalar XHost_SpineLeaf_Network.spine[0].ipv4.ip packetDropAddressResolutionFailed:sum(packetBytes) 0
attr interpolationmode none
attr source packetDropReasonIsAddressResolutionFailed(packetDropped)
attr title "packet drop: address resolution failed, sum(packetBytes)"
scalar XHost_SpineLeaf_Network.spine[0].ipv4.ip packetDropHopLimitReached:count 0
attr interpolationmode none
attr source packetDropReasonIsHopLimitReached(packetDropped)
attr title "packet drop: hop limit reached, count"
scalar XHost_SpineLeaf_Network.spine[0].ipv4.ip packetDropHopLimitReached:sum(packetBytes) 0
attr interpolationmode none
attr source packetDropReasonIsHopLimitReached(packetDropped)
attr title "packet drop: hop limit reached, sum(packetBytes)"
scalar XHost_SpineLeaf_Network.spine[0].ipv4.ip packetDropForwardingDisabled:count 0
attr interpolationmode none
attr source packetDropReasonIsForwardingDisabled(packetDropped)
attr title "packet drop: forwarding disabled, count"
scalar XHost_SpineLeaf_Network.spine[0].ipv4.ip packetDropForwardingDisabled:sum(packetBytes) 0
attr interpolationmode none
attr source packetDropReasonIsForwardingDisabled(packetDropped)
attr title "packet drop: forwarding disabled, sum(packetBytes)"
scalar XHost_SpineLeaf_Network.spine[0].ipv4.ip packetDropNoInterfaceFound:count 0
attr interpolationmode none
attr source packetDropReasonIsNoInterfaceFound(packetDropped)
attr title "packet drop: no interface found, count"
scalar XHost_SpineLeaf_Network.spine[0].ipv4.ip packetDropNoInterfaceFound:sum(packetBytes) 0
attr interpolationmode none
attr source packetDropReasonIsNoInterfaceFound(packetDropped)
attr title "packet drop: no interface found, sum(packetBytes)"
scalar XHost_SpineLeaf_Network.spine[0].ipv4.ip packetDropNoRouteFound:count 0
attr interpolationmode none
attr source packetDropReasonIsNoRouteFound(packetDropped)
attr title "packet drop: no route found, count"
scalar XHost_SpineLeaf_Network.spine[0].ipv4.ip packetDropNoRouteFound:sum(packetBytes) 0
attr interpolationmode none
attr source packetDropReasonIsNoRouteFound(packetDropped)
attr title "packet drop: no route found, sum(packetBytes)"
scalar XHost_SpineLeaf_Network.spine[0].ipv4.ip packetDropUndefined:count 0
attr interpolationmode none
attr source packetDropReasonIsUndefined(packetDropped)
attr title "packet drop: undefined, count"
scalar XHost_SpineLeaf_Network.spine[0].ipv4.ip packetDropUndefined:sum(packetBytes) 0
attr interpolationmode none
attr source packetDropReasonIsUndefined(packetDropped)
attr title "packet drop: undefined, sum(packetBytes)"
scalar XHost_SpineLeaf_Network.spine[0].ipv4.arp arpReplySent:count 1
attr source arpReplySent
attr title "ARP replies sent, count"
scalar XHost_SpineLeaf_Network.spine[0].ipv4.arp arpReplySent:sum(packetBytes) 28
attr source arpReplySent
attr title "ARP replies sent, sum(packetBytes)"
scalar XHost_SpineLeaf_Network.spine[0].ipv4.arp arpRequestSent:count 1
attr source arpRequestSent
attr title "ARP request sent, count"
scalar XHost_SpineLeaf_Network.spine[0].ipv4.arp arpRequestSent:sum(packetBytes) 28
attr source arpRequestSent
attr title "ARP request sent, sum(packetBytes)"
scalar XHost_SpineLeaf_Network.spine[0].ipv4.arp arpResolutionFailed:count 0
attr title "ARP failed resolutions, count"
scalar XHost_SpineLeaf_Network.spine[0].ipv4.arp arpResolutionCompleted:count 2
attr title "ARP completed resolutions, count"
scalar XHost_SpineLeaf_Network.spine[0].ipv4.arp arpResolutionInitiated:count 1
attr title "ARP initiated resolutions, count"
scalar XHost_SpineLeaf_Network.spine[1].lo[0].lo rcvdPkFromHl:count 0
attr interpolationmode none
attr source packetReceivedFromUpper
attr title "packets received from higher layer, count"
scalar XHost_SpineLeaf_Network.spine[1].lo[0].lo rcvdPkFromHl:sum(packetBytes) 0
attr interpolationmode none
attr source packetReceivedFromUpper
attr title "packets received from higher layer, sum(packetBytes)"
scalar XHost_SpineLeaf_Network.spine[1].lo[0].lo passedUpPk:count 0
attr interpolationmode none
attr source packetSentToUpper
attr title "packets passed to higher layer, count"
scalar XHost_SpineLeaf_Network.spine[1].lo[0].lo passedUpPk:sum(packetBytes) 0
attr interpolationmode none
attr source packetSentToUpper
attr title "packets passed to higher layer, sum(packetBytes)"
scalar XHost_SpineLeaf_Network.spine[1].eth[0].mac.queue packetPopped:count 2
attr interpolationmode none
attr title "packet popped, count"
scalar XHost_SpineLeaf_Network.spine[1].eth[0].mac.queue packetPopped:sum(packetBytes) 128
attr interpolationmode none
attr title "packet popped, sum(packetBytes)"
statistic XHost_SpineLeaf_Network.spine[1].eth[0].mac.queue queueingTime:histogram
field count 2
field mean 0
field stddev 0
field min 0
field max 0
field sum 0
field sqrsum 0
attr interpolationmode none
attr source queueingTime(packetPopped)
attr title "queueing times, histogram"
attr unit s
bin	-inf	0
bin	-0.5	0
bin	-0.48	0
bin	-0.46	0
bin	-0.44	0
bin	-0.42	0
bin	-0.4	0
bin	-0.38	0
bin	-0.36	0
bin	-0.34	0
bin	-0.32	0
bin	-0.3	0
bin	-0.28	0
bin	-0.26	0
bin	-0.24	0
bin	-0.22	0
bin	-0.2	0
bin	-0.18	0
bin	-0.16	0
bin	-0.14	0
bin	-0.12	0
bin	-0.1	0
bin	-0.08	0
bin	-0.06	0
bin	-0.04	0
bin	-0.02	0
bin	0	2
bin	0.02	0
bin	0.04	0
bin	0.06	0
bin	0.08	0
bin	0.1	0
bin	0.12	0
bin	0.14	0
bin	0.16	0
bin	0.18	0
bin	0.2	0
bin	0.22	0
bin	0.24	0
bin	0.26	0
bin	0.28	0
bin	0.3	0
bin	0.32	0
bin	0.34	0
bin	0.36	0
bin	0.38	0
bin	0.4	0
bin	0.42	0
bin	0.44	0
bin	0.46	0
bin	0.48	0
bin	0.5	0
scalar XHost_SpineLeaf_Network.spine[1].eth[0].mac.queue queueLength:max 1
attr interpolationmode sample-hold
attr source "count(packetPushed) - count(packetPopped) - count(packetRemoved) - count(packetDropped)"
attr title "queue length, max"
scalar XHost_SpineLeaf_Network.spine[1].eth[0].mac.queue queueLength:timeavg 0
attr interpolationmode sample-hold
attr source "count(packetPushed) - count(packetPopped) - count(packetRemoved) - count(packetDropped)"
attr title "queue length, timeavg"
scalar XHost_SpineLeaf_Network.spine[1].eth[0].mac.queue packetPushed:count 2
attr interpolationmode none
attr title "packet pushed, count"
scalar XHost_SpineLeaf_Network.spine[1].eth[0].mac.queue packetPushed:sum(packetBytes) 128
attr interpolationmode none
attr title "packet pushed, sum(packetBytes)"
scalar XHost_SpineLeaf_Network.spine[1].eth[0].mac.queue packetDropQueueOverflow:count 0
attr interpolationmode none
attr source packetDropReasonIsQueueOverflow(packetDropped)
attr title "packet drops: queue overflow, count"
scalar XHost_SpineLeaf_Network.spine[1].eth[0].mac.queue packetDropQueueOverflow:sum(packetBytes) 0
attr interpolationmode none
attr source packetDropReasonIsQueueOverflow(packetDropped)
attr title "packet drops: queue overflow, sum(packetBytes)"
scalar XHost_SpineLeaf_Network.spine[1].eth[0].mac.queue packetRemoved:count 0
attr interpolationmode none
attr title "packets removed, count"
scalar XHost_SpineLeaf_Network.spine[1].eth[0].mac.queue packetRemoved:sum(packetBytes) 0
attr interpolationmode none
attr title "packets removed, sum(packetBytes)"
scalar XHost_SpineLeaf_Network.spine[1].eth[0].mac "simulated time" 245.0001064
scalar XHost_SpineLeaf_Network.spine[1].eth[0].mac full-duplex 1
scalar XHost_SpineLeaf_Network.spine[1].eth[0].mac "frames/sec sent" 0.0081632617609345
scalar XHost_SpineLeaf_Network.spine[1].eth[0].mac "frames/sec rcvd" 0.0040816308804672
scalar XHost_SpineLeaf_Network.spine[1].eth[0].mac "bits/sec sent" 4.1795900215985
scalar XHost_SpineLeaf_Network.spine[1].eth[0].mac "bits/sec rcvd" 2.0897950107992
scalar XHost_SpineLeaf_Network.spine[1].eth[0].mac "rx channel idle (%)" 100
scalar XHost_SpineLeaf_Network.spine[1].eth[0].mac "rx channel utilization (%)" 0
scalar XHost_SpineLeaf_Network.spine[1].eth[0].mac txPk:count 2
attr interpolationmode none
attr source packetSentToLower
attr title "packets transmitted, count"
scalar XHost_SpineLeaf_Network.spine[1].eth[0].mac txPk:sum(packetBytes) 128
attr interpolationmode none
attr source packetSentToLower
attr title "packets transmitted, sum(packetBytes)"
scalar XHost_SpineLeaf_Network.spine[1].eth[0].mac packetReceivedFromUpper:count 2
attr interpolationmode none
attr source packetReceivedFromUpper
attr title "packet bytes from higher layer, count"
scalar XHost_SpineLeaf_Network.spine[1].eth[0].mac packetReceivedFromUpper:sum(packetBytes) 108
attr interpolationmode none
attr source packetReceivedFromUpper
attr title "packet bytes from higher layer, sum(packetBytes)"
scalar XHost_SpineLeaf_Network.spine[1].eth[0].mac passedUpPk:count 1
attr interpolationmode none
attr source packetSentToUpper
attr title "packets passed to higher layer, count"
scalar XHost_SpineLeaf_Network.spine[1].eth[0].mac passedUpPk:sum(packetBytes) 64
attr interpolationmode none
attr source packetSentToUpper
attr title "packets passed to higher layer, sum(packetBytes)"
scalar XHost_SpineLeaf_Network.spine[1].eth[0].mac packetDropIncorrectlyReceived:count 0
attr interpolationmode none
attr source packetDropReasonIsIncorrectlyReceived(packetDropped)
attr title "packet drop: incorrectly received, count"
scalar XHost_SpineLeaf_Network.spine[1].eth[0].mac packetDropIncorrectlyReceived:sum(packetBytes) 0
attr interpolationmode none
attr source packetDropReasonIsIncorrectlyReceived(packetDropped)
attr title "packet drop: incorrectly received, sum(packetBytes)"
scalar XHost_SpineLeaf_Network.spine[1].eth[0].mac packetDropInterfaceDown:count 0
attr interpolationmode none
attr source packetDropReasonIsInterfaceDown(packetDropped)
attr title "packet drop: interface down, count"
scalar XHost_SpineLeaf_Network.spine[1].eth[0].mac packetDropInterfaceDown:sum(packetBytes) 0
attr interpolationmode none
attr source packetDropReasonIsInterfaceDown(packetDropped)
attr title "packet drop: interface down, sum(packetBytes)"
scalar XHost_SpineLeaf_Network.spine[1].eth[0].mac packetDropNotAddressedToUs:count 0
attr interpolationmode none
attr source packetDropReasonIsNotAddressedToUs(packetDropped)
attr title "packet drop: not addressed to us, count"
scalar XHost_SpineLeaf_Network.spine[1].eth[0].mac packetDropNotAddressedToUs:sum(packetBytes) 0
attr interpolationmode none
attr source packetDropReasonIsNotAddressedToUs(packetDropped)
attr title "packet drop: not addressed to us, sum(packetBytes)"
scalar XHost_SpineLeaf_Network.spine[1].eth[0].mac rxPausePkUnits:count 0
attr interpolationmode none
attr title "pause units received, count"
scalar XHost_SpineLeaf_Network.spine[1].eth[0].mac rxPausePkUnits:sum 0
attr interpolationmode none
attr title "pause units received, sum"
scalar XHost_SpineLeaf_Network.spine[1].eth[0].mac txPausePkUnits:count 0
attr interpolationmode none
attr title "pause units sent, count"
scalar XHost_SpineLeaf_Network.spine[1].eth[0].mac txPausePkUnits:sum 0
attr interpolationmode none
attr title "pause units sent, sum"
scalar XHost_SpineLeaf_Network.spine[1].eth[0].mac rxPkOk:count 1
attr interpolationmode none
attr source rxPkOk
attr title "packets received OK, count"
scalar XHost_SpineLeaf_Network.spine[1].eth[0].mac rxPkOk:sum(packetBytes) 64
attr interpolationmode none
attr source rxPkOk
attr title "packets received OK, sum(packetBytes)"
scalar XHost_SpineLeaf_Network.spine[1].eth[0].encap pauseSent:count 0
attr title "pause sent, count"
scalar XHost_SpineLeaf_Network.spine[1].eth[0].encap pauseSent:sum 0
attr title "pause sent, sum"
scalar XHost_SpineLeaf_Network.spine[1].eth[0].encap decapPk:count 1
attr interpolationmode none
attr source decapPk
attr title "packets decapsulated, count"
scalar XHost_SpineLeaf_Network.spine[1].eth[0].encap decapPk:sum(packetBytes) 46
attr interpolationmode none
attr source decapPk
attr title "packets decapsulated, sum(packetBytes)"
[...]
attr interpolationmode none
attr source decapPk
attr title "packets decapsulated, sum(packetBytes)"
scalar XHost_SpineLeaf_Network.borderLeaf.eth[3].encap encapPk:count 2
attr interpolationmode none
attr source encapPk
attr title "packets encapsulated, count"
scalar XHost_SpineLeaf_Network.borderLeaf.eth[3].encap encapPk:sum(packetBytes) 68
attr interpolationmode none
attr source encapPk
attr title "packets encapsulated, sum(packetBytes)"
scalar XHost_SpineLeaf_Network.borderLeaf.eth[4].mac.queue packetPopped:count 1
attr interpolationmode none
attr title "packet popped, count"
scalar XHost_SpineLeaf_Network.borderLeaf.eth[4].mac.queue packetPopped:sum(packetBytes) 64
attr interpolationmode none
attr title "packet popped, sum(packetBytes)"
statistic XHost_SpineLeaf_Network.borderLeaf.eth[4].mac.queue queueingTime:histogram
field count 1
field mean 0
field stddev nan
field min 0
field max 0
field sum 0
field sqrsum 0
attr interpolationmode none
attr source queueingTime(packetPopped)
attr title "queueing times, histogram"
attr unit s
bin	-inf	0
bin	-0.5	0
bin	-0.48	0
bin	-0.46	0
bin	-0.44	0
bin	-0.42	0
bin	-0.4	0
bin	-0.38	0
bin	-0.36	0
bin	-0.34	0
bin	-0.32	0
bin	-0.3	0
bin	-0.28	0
bin	-0.26	0
bin	-0.24	0
bin	-0.22	0
bin	-0.2	0
bin	-0.18	0
bin	-0.16	0
bin	-0.14	0
bin	-0.12	0
bin	-0.1	0
bin	-0.08	0
bin	-0.06	0
bin	-0.04	0
bin	-0.02	0
bin	0	1
bin	0.02	0
bin	0.04	0
bin	0.06	0
bin	0.08	0
bin	0.1	0
bin	0.12	0
bin	0.14	0
bin	0.16	0
bin	0.18	0
bin	0.2	0
bin	0.22	0
bin	0.24	0
bin	0.26	0
bin	0.28	0
bin	0.3	0
bin	0.32	0
bin	0.34	0
bin	0.36	0
bin	0.38	0
bin	0.4	0
bin	0.42	0
bin	0.44	0
bin	0.46	0
bin	0.48	0
bin	0.5	0
scalar XHost_SpineLeaf_Network.borderLeaf.eth[4].mac.queue queueLength:max 1
attr interpolationmode sample-hold
attr source "count(packetPushed) - count(packetPopped) - count(packetRemoved) - count(packetDropped)"
attr title "queue length, max"
scalar XHost_SpineLeaf_Network.borderLeaf.eth[4].mac.queue queueLength:timeavg 0
attr interpolationmode sample-hold
attr source "count(packetPushed) - count(packetPopped) - count(packetRemoved) - count(packetDropped)"
attr title "queue length, timeavg"
scalar XHost_SpineLeaf_Network.borderLeaf.eth[4].mac.queue packetPushed:count 1
attr interpolationmode none
attr title "packet pushed, count"
scalar XHost_SpineLeaf_Network.borderLeaf.eth[4].mac.queue packetPushed:sum(packetBytes) 64
attr interpolationmode none
attr title "packet pushed, sum(packetBytes)"
scalar XHost_SpineLeaf_Network.borderLeaf.eth[4].mac.queue packetDropQueueOverflow:count 0
attr interpolationmode none
attr source packetDropReasonIsQueueOverflow(packetDropped)
attr title "packet drops: queue overflow, count"
scalar XHost_SpineLeaf_Network.borderLeaf.eth[4].mac.queue packetDropQueueOverflow:sum(packetBytes) 0
attr interpolationmode none
attr source packetDropReasonIsQueueOverflow(packetDropped)
attr title "packet drops: queue overflow, sum(packetBytes)"
scalar XHost_SpineLeaf_Network.borderLeaf.eth[4].mac.queue packetRemoved:count 0
attr interpolationmode none
attr title "packets removed, count"
scalar XHost_SpineLeaf_Network.borderLeaf.eth[4].mac.queue packetRemoved:sum(packetBytes) 0
attr interpolationmode none
attr title "packets removed, sum(packetBytes)"
scalar XHost_SpineLeaf_Network.borderLeaf.eth[4].mac "simulated time" 245.0001064
scalar XHost_SpineLeaf_Network.borderLeaf.eth[4].mac full-duplex 1
scalar XHost_SpineLeaf_Network.borderLeaf.eth[4].mac "frames/sec sent" 0.0040816308804672
scalar XHost_SpineLeaf_Network.borderLeaf.eth[4].mac "frames/sec rcvd" 0.012244892641402
scalar XHost_SpineLeaf_Network.borderLeaf.eth[4].mac "bits/sec sent" 2.0897950107992
scalar XHost_SpineLeaf_Network.borderLeaf.eth[4].mac "bits/sec rcvd" 6.2693850323977
scalar XHost_SpineLeaf_Network.borderLeaf.eth[4].mac "rx channel idle (%)" 100
scalar XHost_SpineLeaf_Network.borderLeaf.eth[4].mac "rx channel utilization (%)" 0
scalar XHost_SpineLeaf_Network.borderLeaf.eth[4].mac txPk:count 1
attr interpolationmode none
attr source packetSentToLower
attr title "packets transmitted, count"
scalar XHost_SpineLeaf_Network.borderLeaf.eth[4].mac txPk:sum(packetBytes) 64
attr interpolationmode none
attr source packetSentToLower
attr title "packets transmitted, sum(packetBytes)"
scalar XHost_SpineLeaf_Network.borderLeaf.eth[4].mac packetReceivedFromUpper:count 1
attr interpolationmode none
attr source packetReceivedFromUpper
attr title "packet bytes from higher layer, count"
scalar XHost_SpineLeaf_Network.borderLeaf.eth[4].mac packetReceivedFromUpper:sum(packetBytes) 46
attr interpolationmode none
attr source packetReceivedFromUpper
attr title "packet bytes from higher layer, sum(packetBytes)"
scalar XHost_SpineLeaf_Network.borderLeaf.eth[4].mac passedUpPk:count 3
attr interpolationmode none
attr source packetSentToUpper
attr title "packets passed to higher layer, count"
scalar XHost_SpineLeaf_Network.borderLeaf.eth[4].mac passedUpPk:sum(packetBytes) 192
attr interpolationmode none
attr source packetSentToUpper
attr title "packets passed to higher layer, sum(packetBytes)"
scalar XHost_SpineLeaf_Network.borderLeaf.eth[4].mac packetDropIncorrectlyReceived:count 0
attr interpolationmode none
attr source packetDropReasonIsIncorrectlyReceived(packetDropped)
attr title "packet drop: incorrectly received, count"
scalar XHost_SpineLeaf_Network.borderLeaf.eth[4].mac packetDropIncorrectlyReceived:sum(packetBytes) 0
attr interpolationmode none
attr source packetDropReasonIsIncorrectlyReceived(packetDropped)
attr title "packet drop: incorrectly received, sum(packetBytes)"
scalar XHost_SpineLeaf_Network.borderLeaf.eth[4].mac packetDropInterfaceDown:count 0
attr interpolationmode none
attr source packetDropReasonIsInterfaceDown(packetDropped)
attr title "packet drop: interface down, count"
scalar XHost_SpineLeaf_Network.borderLeaf.eth[4].mac packetDropInterfaceDown:sum(packetBytes) 0
attr interpolationmode none
attr source packetDropReasonIsInterfaceDown(packetDropped)
attr title "packet drop: interface down, sum(packetBytes)"
scalar XHost_SpineLeaf_Network.borderLeaf.eth[4].mac packetDropNotAddressedToUs:count 0
attr interpolationmode none
attr source packetDropReasonIsNotAddressedToUs(packetDropped)
attr title "packet drop: not addressed to us, count"
scalar XHost_SpineLeaf_Network.borderLeaf.eth[4].mac packetDropNotAddressedToUs:sum(packetBytes) 0
attr interpolationmode none
attr source packetDropReasonIsNotAddressedToUs(packetDropped)
attr title "packet drop: not addressed to us, sum(packetBytes)"
scalar XHost_SpineLeaf_Network.borderLeaf.eth[4].mac rxPausePkUnits:count 0
attr interpolationmode none
attr title "pause units received, count"
scalar XHost_SpineLeaf_Network.borderLeaf.eth[4].mac rxPausePkUnits:sum 0
attr interpolationmode none
attr title "pause units received, sum"
scalar XHost_SpineLeaf_Network.borderLeaf.eth[4].mac txPausePkUnits:count 0
attr interpolationmode none
attr title "pause units sent, count"
scalar XHost_SpineLeaf_Network.borderLeaf.eth[4].mac txPausePkUnits:sum 0
attr interpolationmode none
attr title "pause units sent, sum"
scalar XHost_SpineLeaf_Network.borderLeaf.eth[4].mac rxPkOk:count 3
attr interpolationmode none
attr source rxPkOk
attr title "packets received OK, count"
scalar XHost_SpineLeaf_Network.borderLeaf.eth[4].mac rxPkOk:sum(packetBytes) 192
attr interpolationmode none
attr source rxPkOk
attr title "packets received OK, sum(packetBytes)"
scalar XHost_SpineLeaf_Network.borderLeaf.eth[4].encap pauseSent:count 0
attr title "pause sent, count"
scalar XHost_SpineLeaf_Network.borderLeaf.eth[4].encap pauseSent:sum 0
attr title "pause sent, sum"
scalar XHost_SpineLeaf_Network.borderLeaf.eth[4].encap decapPk:count 3
attr interpolationmode none
attr source decapPk
attr title "packets decapsulated, count"
scalar XHost_SpineLeaf_Network.borderLeaf.eth[4].encap decapPk:sum(packetBytes) 138
attr interpolationmode none
attr source decapPk
attr title "packets decapsulated, sum(packetBytes)"
scalar XHost_SpineLeaf_Network.borderLeaf.eth[4].encap encapPk:count 1
attr interpolationmode none
attr source encapPk
attr title "packets encapsulated, count"
scalar XHost_SpineLeaf_Network.borderLeaf.eth[4].encap encapPk:sum(packetBytes) 28
attr interpolationmode none
attr source encapPk
attr title "packets encapsulated, sum(packetBytes)"
scalar XHost_SpineLeaf_Network.borderLeaf.eth[5].mac.queue packetPopped:count 6
attr interpolationmode none
attr title "packet popped, count"
scalar XHost_SpineLeaf_Network.borderLeaf.eth[5].mac.queue packetPopped:sum(packetBytes) 384
attr interpolationmode none
attr title "packet popped, sum(packetBytes)"
statistic XHost_SpineLeaf_Network.borderLeaf.eth[5].mac.queue queueingTime:histogram
field count 6
field mean 0
field stddev 0
field min 0
field max 0
field sum 0
field sqrsum 0
attr interpolationmode none
attr source queueingTime(packetPopped)
attr title "queueing times, histogram"
attr unit s
bin	-inf	0
bin	-0.5	0
bin	-0.48	0
bin	-0.46	0
bin	-0.44	0
bin	-0.42	0
bin	-0.4	0
bin	-0.38	0
bin	-0.36	0
bin	-0.34	0
bin	-0.32	0
bin	-0.3	0
bin	-0.28	0
bin	-0.26	0
bin	-0.24	0
bin	-0.22	0
bin	-0.2	0
bin	-0.18	0
bin	-0.16	0
bin	-0.14	0
bin	-0.12	0
bin	-0.1	0
bin	-0.08	0
bin	-0.06	0
bin	-0.04	0
bin	-0.02	0
bin	0	6
bin	0.02	0
bin	0.04	0
bin	0.06	0
bin	0.08	0
bin	0.1	0
bin	0.12	0
bin	0.14	0
bin	0.16	0
bin	0.18	0
bin	0.2	0
bin	0.22	0
bin	0.24	0
bin	0.26	0
bin	0.28	0
bin	0.3	0
bin	0.32	0
bin	0.34	0
bin	0.36	0
bin	0.38	0
bin	0.4	0
bin	0.42	0
bin	0.44	0
bin	0.46	0
bin	0.48	0
bin	0.5	0
scalar XHost_SpineLeaf_Network.borderLeaf.eth[5].mac.queue queueLength:max 1
attr interpolationmode sample-hold
attr source "count(packetPushed) - count(packetPopped) - count(packetRemoved) - count(packetDropped)"
attr title "queue length, max"
scalar XHost_SpineLeaf_Network.borderLeaf.eth[5].mac.queue queueLength:timeavg 0
attr interpolationmode sample-hold
attr source "count(packetPushed) - count(packetPopped) - count(packetRemoved) - count(packetDropped)"
attr title "queue length, timeavg"
scalar XHost_SpineLeaf_Network.borderLeaf.eth[5].mac.queue packetPushed:count 6
attr interpolationmode none
attr title "packet pushed, count"
scalar XHost_SpineLeaf_Network.borderLeaf.eth[5].mac.queue packetPushed:sum(packetBytes) 384
attr interpolationmode none
attr title "packet pushed, sum(packetBytes)"
scalar XHost_SpineLeaf_Network.borderLeaf.eth[5].mac.queue packetDropQueueOverflow:count 0
attr interpolationmode none
attr source packetDropReasonIsQueueOverflow(packetDropped)
attr title "packet drops: queue overflow, count"
scalar XHost_SpineLeaf_Network.borderLeaf.eth[5].mac.queue packetDropQueueOverflow:sum(packetBytes) 0
attr interpolationmode none
attr source packetDropReasonIsQueueOverflow(packetDropped)
attr title "packet drops: queue overflow, sum(packetBytes)"
scalar XHost_SpineLeaf_Network.borderLeaf.eth[5].mac.queue packetRemoved:count 0
attr interpolationmode none
attr title "packets removed, count"
scalar XHost_SpineLeaf_Network.borderLeaf.eth[5].mac.queue packetRemoved:sum(packetBytes) 0
attr interpolationmode none
attr title "packets removed, sum(packetBytes)"
scalar XHost_SpineLeaf_Network.borderLeaf.eth[5].mac "simulated time" 245.0001064
scalar XHost_SpineLeaf_Network.borderLeaf.eth[5].mac full-duplex 1
scalar XHost_SpineLeaf_Network.borderLeaf.eth[5].mac "frames/sec sent" 0.024489785282803
scalar XHost_SpineLeaf_Network.borderLeaf.eth[5].mac "frames/sec rcvd" 0.020408154402336
scalar XHost_SpineLeaf_Network.borderLeaf.eth[5].mac "bits/sec sent" 12.538770064795
scalar XHost_SpineLeaf_Network.borderLeaf.eth[5].mac "bits/sec rcvd" 10.448975053996
scalar XHost_SpineLeaf_Network.borderLeaf.eth[5].mac "rx channel idle (%)" 100
scalar XHost_SpineLeaf_Network.borderLeaf.eth[5].mac "rx channel utilization (%)" 0
scalar XHost_SpineLeaf_Network.borderLeaf.eth[5].mac txPk:count 6
attr interpolationmode none
attr source packetSentToLower
attr title "packets transmitted, count"
scalar XHost_SpineLeaf_Network.borderLeaf.eth[5].mac txPk:sum(packetBytes) 384
attr interpolationmode none
attr source packetSentToLower
attr title "packets transmitted, sum(packetBytes)"
scalar XHost_SpineLeaf_Network.borderLeaf.eth[5].mac packetReceivedFromUpper:count 6
attr interpolationmode none
attr source packetReceivedFromUpper
attr title "packet bytes from higher layer, count"
scalar XHost_SpineLeaf_Network.borderLeaf.eth[5].mac packetReceivedFromUpper:sum(packetBytes) 342
attr interpolationmode none
attr source packetReceivedFromUpper
attr title "packet bytes from higher layer, sum(packetBytes)"
scalar XHost_SpineLeaf_Network.borderLeaf.eth[5].mac passedUpPk:count 5
attr interpolationmode none
attr source packetSentToUpper
attr title "packets passed to higher layer, count"
scalar XHost_SpineLeaf_Network.borderLeaf.eth[5].mac passedUpPk:sum(packetBytes) 320
attr interpolationmode none
attr source packetSentToUpper
attr title "packets passed to higher layer, sum(packetBytes)"
scalar XHost_SpineLeaf_Network.borderLeaf.eth[5].mac packetDropIncorrectlyReceived:count 0
attr interpolationmode none
attr source packetDropReasonIsIncorrectlyReceived(packetDropped)
attr title "packet drop: incorrectly received, count"
scalar XHost_SpineLeaf_Network.borderLeaf.eth[5].mac packetDropIncorrectlyReceived:sum(packetBytes) 0
attr interpolationmode none
attr source packetDropReasonIsIncorrectlyReceived(packetDropped)
attr title "packet drop: incorrectly received, sum(packetBytes)"
scalar XHost_SpineLeaf_Network.borderLeaf.eth[5].mac packetDropInterfaceDown:count 0
attr interpolationmode none
attr source packetDropReasonIsInterfaceDown(packetDropped)
attr title "packet drop: interface down, count"
scalar XHost_SpineLeaf_Network.borderLeaf.eth[5].mac packetDropInterfaceDown:sum(packetBytes) 0
attr interpolationmode none
attr source packetDropReasonIsInterfaceDown(packetDropped)
attr title "packet drop: interface down, sum(packetBytes)"
scalar XHost_SpineLeaf_Network.borderLeaf.eth[5].mac packetDropNotAddressedToUs:count 0
attr interpolationmode none
attr source packetDropReasonIsNotAddressedToUs(packetDropped)
attr title "packet drop: not addressed to us, count"
scalar XHost_SpineLeaf_Network.borderLeaf.eth[5].mac packetDropNotAddressedToUs:sum(packetBytes) 0
attr interpolationmode none
attr source packetDropReasonIsNotAddressedToUs(packetDropped)
attr title "packet drop: not addressed to us, sum(packetBytes)"
scalar XHost_SpineLeaf_Network.borderLeaf.eth[5].mac rxPausePkUnits:count 0
attr interpolationmode none
attr title "pause units received, count"
scalar XHost_SpineLeaf_Network.borderLeaf.eth[5].mac rxPausePkUnits:sum 0
attr interpolationmode none
attr title "pause units received, sum"
scalar XHost_SpineLeaf_Network.borderLeaf.eth[5].mac txPausePkUnits:count 0
attr interpolationmode none
attr title "pause units sent, count"
scalar XHost_SpineLeaf_Network.borderLeaf.eth[5].mac txPausePkUnits:sum 0
attr interpolationmode none
attr title "pause units sent, sum"
scalar XHost_SpineLeaf_Network.borderLeaf.eth[5].mac rxPkOk:count 5
attr interpolationmode none
attr source rxPkOk
attr title "packets received OK, count"
scalar XHost_SpineLeaf_Network.borderLeaf.eth[5].mac rxPkOk:sum(packetBytes) 320
attr interpolationmode none
attr source rxPkOk
attr title "packets received OK, sum(packetBytes)"
scalar XHost_SpineLeaf_Network.borderLeaf.eth[5].encap pauseSent:count 0
attr title "pause sent, count"
scalar XHost_SpineLeaf_Network.borderLeaf.eth[5].encap pauseSent:sum 0
attr title "pause sent, sum"
scalar XHost_SpineLeaf_Network.borderLeaf.eth[5].encap decapPk:count 5
attr interpolationmode none
attr source decapPk
attr title "packets decapsulated, count"
scalar XHost_SpineLeaf_Network.borderLeaf.eth[5].encap decapPk:sum(packetBytes) 230
attr interpolationmode none
attr source decapPk
attr title "packets decapsulated, sum(packetBytes)"
scalar XHost_SpineLeaf_Network.borderLeaf.eth[5].encap encapPk:count 6
attr interpolationmode none
attr source encapPk
attr title "packets encapsulated, count"
scalar XHost_SpineLeaf_Network.borderLeaf.eth[5].encap encapPk:sum(packetBytes) 234
attr interpolationmode none
attr source encapPk
attr title "packets encapsulated, sum(packetBytes)"
scalar XHost_SpineLeaf_Network.borderLeaf.ipv4.ip packetDropAddressResolutionFailed:count 0
attr interpolationmode none
attr source packetDropReasonIsAddressResolutionFailed(packetDropped)
attr title "packet drop: address resolution failed, count"
scalar XHost_SpineLeaf_Network.borderLeaf.ipv4.ip packetDropAddressResolutionFailed:sum(packetBytes) 0
attr interpolationmode none
attr source packetDropReasonIsAddressResolutionFailed(packetDropped)
attr title "packet drop: address resolution failed, sum(packetBytes)"
scalar XHost_SpineLeaf_Network.borderLeaf.ipv4.ip packetDropHopLimitReached:count 0
attr interpolationmode none
attr source packetDropReasonIsHopLimitReached(packetDropped)
attr title "packet drop: hop limit reached, count"
scalar XHost_SpineLeaf_Network.borderLeaf.ipv4.ip packetDropHopLimitReached:sum(packetBytes) 0
attr interpolationmode none
attr source packetDropReasonIsHopLimitReached(packetDropped)
attr title "packet drop: hop limit reached, sum(packetBytes)"
scalar XHost_SpineLeaf_Network.borderLeaf.ipv4.ip packetDropForwardingDisabled:count 0
attr interpolationmode none
attr source packetDropReasonIsForwardingDisabled(packetDropped)
attr title "packet drop: forwarding disabled, count"
scalar XHost_SpineLeaf_Network.borderLeaf.ipv4.ip packetDropForwardingDisabled:sum(packetBytes) 0
attr interpolationmode none
attr source packetDropReasonIsForwardingDisabled(packetDropped)
attr title "packet drop: forwarding disabled, sum(packetBytes)"
scalar XHost_SpineLeaf_Network.borderLeaf.ipv4.ip packetDropNoInterfaceFound:count 0
attr interpolationmode none
attr source packetDropReasonIsNoInterfaceFound(packetDropped)
attr title "packet drop: no interface found, count"
scalar XHost_SpineLeaf_Network.borderLeaf.ipv4.ip packetDropNoInterfaceFound:sum(packetBytes) 0
attr interpolationmode none
attr source packetDropReasonIsNoInterfaceFound(packetDropped)
attr title "packet drop: no interface found, sum(packetBytes)"
scalar XHost_SpineLeaf_Network.borderLeaf.ipv4.ip packetDropNoRouteFound:count 0
attr interpolationmode none
attr source packetDropReasonIsNoRouteFound(packetDropped)
attr title "packet drop: no route found, count"
scalar XHost_SpineLeaf_Network.borderLeaf.ipv4.ip packetDropNoRouteFound:sum(packetBytes) 0
attr interpolationmode none
attr source packetDropReasonIsNoRouteFound(packetDropped)
attr title "packet drop: no route found, sum(packetBytes)"
scalar XHost_SpineLeaf_Network.borderLeaf.ipv4.ip packetDropUndefined:count 0
attr interpolationmode none
attr source packetDropReasonIsUndefined(packetDropped)
attr title "packet drop: undefined, count"
scalar XHost_SpineLeaf_Network.borderLeaf.ipv4.ip packetDropUndefined:sum(packetBytes) 0
attr interpolationmode none
attr source packetDropReasonIsUndefined(packetDropped)
attr title "packet drop: undefined, sum(packetBytes)"
scalar XHost_SpineLeaf_Network.borderLeaf.ipv4.arp arpReplySent:count 3
attr source arpReplySent
attr title "ARP replies sent, count"
scalar XHost_SpineLeaf_Network.borderLeaf.ipv4.arp arpReplySent:sum(packetBytes) 84
attr source arpReplySent
attr title "ARP replies sent, sum(packetBytes)"
scalar XHost_SpineLeaf_Network.borderLeaf.ipv4.arp arpRequestSent:count 3
attr source arpRequestSent
attr title "ARP request sent, count"
scalar XHost_SpineLeaf_Network.borderLeaf.ipv4.arp arpRequestSent:sum(packetBytes) 84
attr source arpRequestSent
attr title "ARP request sent, sum(packetBytes)"
scalar XHost_SpineLeaf_Network.borderLeaf.ipv4.arp arpResolutionFailed:count 0
attr title "ARP failed resolutions, count"
scalar XHost_SpineLeaf_Network.borderLeaf.ipv4.arp arpResolutionCompleted:count 6
attr title "ARP completed resolutions, count"
scalar XHost_SpineLeaf_Network.borderLeaf.ipv4.arp arpResolutionInitiated:count 3
attr title "ARP initiated resolutions, count"

