version 2
run Traffic_1-0-20210128-22:57:19-18176
attr configname Traffic_1
attr datetime 20210128-22:57:19
attr experiment Traffic_1
attr inifile _XHostSpineLeaf/XHost_SpineLeaf.ini
attr iterationvars ""
attr iterationvarsf ""
attr measurement ""
attr network XHost_SpineLeaf_Network
attr processid 18176
attr repetition 0
attr replication #0
attr resultdir results
attr runnumber 0
attr seedset 0
param **.borderLeaf.**.packetCapacity 1
param **.leaf[*].**.packetCapacity 1
param **.spine[*].**.packetCapacity 1
param **.H[*].numApps 1
param **.border.numApps 1
param **.H[*].app[0].typename "\"TcpSessionApp\""
param **.H[*].app[0].connectAddress "\"border\""
param **.H[*].app[0].tOpen 1.0s
param **.H[*].app[0].tSend 1.1s
param **.H[*].app[0].sendBytes 100000B
param **.H[*].app[0].tClose 0s
param **.border.app[0].typename "\"TcpEchoApp\""
param **.LanVisualizer.interfaceTableVisualizer.displayInterfaceTables true
param **.LanVisualizer.interfaceTableVisualizer.displayWiredInterfacesAtConnections false
param **.LanVisualizer.interfaceTableVisualizer.nodeFilter "\"not (*topOfRack or *H*)\""
param **.LanVisualizer.interfaceTableVisualizer.placementPriority 2
param **.LanVisualizer.interfaceTableVisualizer.format "\"%N %\\\\%n/%l%\\\\%m\""
param **.LanVisualizer.packetDropVisualizer.displayPacketDrops true
param **.LanVisualizer.packetDropVisualizer.labelFormat "\"%n/reason: %r\""
param **.LanVisualizer.packetDropVisualizer.fadeOutTime 10s
param **.LeafVisualizer.interfaceTableVisualizer.displayInterfaceTables true
param **.LeafVisualizer.interfaceTableVisualizer.displayWiredInterfacesAtConnections false
param **.LeafVisualizer.interfaceTableVisualizer.placementPriority 2
param **.LeafVisualizer.interfaceTableVisualizer.format "\"%N %\\\\%n/%l%\\\\%m\""
param **.configurator.config "xmldoc(\"../../OMNeT-INET-SpineLeafResearch/Spine-Leaf-ManualDCN/_XHostSpineLeaf/XHost_SpineLeaf_Routing.xml\")"

scalar XHost_SpineLeaf_Network.spine[0].lo[0].lo rcvdPkFromHl:count 0
attr interpolationmode none
attr source packetReceivedFromUpper
attr title "packets received from higher layer, count"
scalar XHost_SpineLeaf_Network.spine[0].lo[0].lo rcvdPkFromHl:sum(packetBytes) 0
attr interpolationmode none
attr source packetReceivedFromUpper
attr title "packets received from higher layer, sum(packetBytes)"
scalar XHost_SpineLeaf_Network.spine[0].lo[0].lo passedUpPk:count 0
attr interpolationmode none
attr source packetSentToUpper
attr title "packets passed to higher layer, count"
scalar XHost_SpineLeaf_Network.spine[0].lo[0].lo passedUpPk:sum(packetBytes) 0
attr interpolationmode none
attr source packetSentToUpper
attr title "packets passed to higher layer, sum(packetBytes)"
scalar XHost_SpineLeaf_Network.spine[0].eth[0].mac.queue packetPopped:count 1239
attr interpolationmode none
attr title "packet popped, count"
scalar XHost_SpineLeaf_Network.spine[0].eth[0].mac.queue packetPopped:sum(packetBytes) 421271
attr interpolationmode none
attr title "packet popped, sum(packetBytes)"
statistic XHost_SpineLeaf_Network.spine[0].eth[0].mac.queue queueingTime:histogram
field count 1239
field mean 1.560807102502e-006
field stddev 7.3821991282012e-006
field min 0
field max 4.912e-005
field sum 0.00193384
field sqrsum 7.04854688e-008
attr interpolationmode none
attr source queueingTime(packetPopped)
attr title "queueing times, histogram"
attr unit s
bin	-inf	0
bin	0	1163
bin	1e-006	0
bin	2e-006	1
bin	3e-006	3
bin	4e-006	0
bin	5e-006	1
bin	6e-006	23
bin	7e-006	0
bin	8e-006	0
bin	9e-006	0
bin	1e-005	0
bin	1.1e-005	0
bin	1.2e-005	0
bin	1.3e-005	4
bin	1.4e-005	0
bin	1.5e-005	0
bin	1.6e-005	0
bin	1.7e-005	0
bin	1.8e-005	0
bin	1.9e-005	0
bin	2e-005	3
bin	2.1e-005	0
bin	2.2e-005	2
bin	2.3e-005	0
bin	2.4e-005	0
bin	2.5e-005	0
bin	2.6e-005	0
bin	2.7e-005	0
bin	2.8e-005	2
bin	2.9e-005	1
bin	3e-005	0
bin	3.1e-005	0
bin	3.2e-005	0
bin	3.3e-005	0
bin	3.4e-005	0
bin	3.5e-005	3
bin	3.6e-005	0
bin	3.7e-005	0
bin	3.8e-005	0
bin	3.9e-005	1
bin	4e-005	0
bin	4.1e-005	0
bin	4.2e-005	30
bin	4.3e-005	0
bin	4.4e-005	0
bin	4.5e-005	0
bin	4.6e-005	1
bin	4.7e-005	0
bin	4.8e-005	0
bin	4.9e-005	1
bin	5e-005	0
bin	5.1e-005	0
bin	5.2e-005	0
bin	5.3e-005	0
bin	5.4e-005	0
bin	5.5e-005	0
bin	5.6e-005	0
bin	5.7e-005	0
bin	5.8e-005	0
bin	5.9e-005	0
bin	6e-005	0
bin	6.1e-005	0
bin	6.2e-005	0
scalar XHost_SpineLeaf_Network.spine[0].eth[0].mac.queue queueLength:max 2
attr interpolationmode sample-hold
attr source "count(packetPushed) - count(packetPopped) - count(packetRemoved) - count(packetDropped)"
attr title "queue length, max"
scalar XHost_SpineLeaf_Network.spine[0].eth[0].mac.queue queueLength:timeavg 6.4312629278459e-006
attr interpolationmode sample-hold
attr source "count(packetPushed) - count(packetPopped) - count(packetRemoved) - count(packetDropped)"
attr title "queue length, timeavg"
scalar XHost_SpineLeaf_Network.spine[0].eth[0].mac.queue packetPushed:count 1246
attr interpolationmode none
attr title "packet pushed, count"
scalar XHost_SpineLeaf_Network.spine[0].eth[0].mac.queue packetPushed:sum(packetBytes) 421719
attr interpolationmode none
attr title "packet pushed, sum(packetBytes)"
scalar XHost_SpineLeaf_Network.spine[0].eth[0].mac.queue packetDropQueueOverflow:count 7
attr interpolationmode none
attr source packetDropReasonIsQueueOverflow(packetDropped)
attr title "packet drops: queue overflow, count"
scalar XHost_SpineLeaf_Network.spine[0].eth[0].mac.queue packetDropQueueOverflow:sum(packetBytes) 448
attr interpolationmode none
attr source packetDropReasonIsQueueOverflow(packetDropped)
attr title "packet drops: queue overflow, sum(packetBytes)"
scalar XHost_SpineLeaf_Network.spine[0].eth[0].mac.queue packetRemoved:count 0
attr interpolationmode none
attr title "packets removed, count"
scalar XHost_SpineLeaf_Network.spine[0].eth[0].mac.queue packetRemoved:sum(packetBytes) 0
attr interpolationmode none
attr title "packets removed, sum(packetBytes)"
scalar XHost_SpineLeaf_Network.spine[0].eth[0].mac "simulated time" 301.69369669536
scalar XHost_SpineLeaf_Network.spine[0].eth[0].mac full-duplex 1
scalar XHost_SpineLeaf_Network.spine[0].eth[0].mac "frames/sec sent" 4.1068143404106
scalar XHost_SpineLeaf_Network.spine[0].eth[0].mac "frames/sec rcvd" 4.0637242787275
scalar XHost_SpineLeaf_Network.spine[0].eth[0].mac "bits/sec sent" 11170.826692488
scalar XHost_SpineLeaf_Network.spine[0].eth[0].mac "bits/sec rcvd" 10356.968124379
scalar XHost_SpineLeaf_Network.spine[0].eth[0].mac "rx channel idle (%)" 100
scalar XHost_SpineLeaf_Network.spine[0].eth[0].mac "rx channel utilization (%)" 0
scalar XHost_SpineLeaf_Network.spine[0].eth[0].mac txPk:count 1239
attr interpolationmode none
attr source packetSentToLower
attr title "packets transmitted, count"
scalar XHost_SpineLeaf_Network.spine[0].eth[0].mac txPk:sum(packetBytes) 421271
attr interpolationmode none
attr source packetSentToLower
attr title "packets transmitted, sum(packetBytes)"
scalar XHost_SpineLeaf_Network.spine[0].eth[0].mac packetReceivedFromUpper:count 1246
attr interpolationmode none
attr source packetReceivedFromUpper
attr title "packet bytes from higher layer, count"
scalar XHost_SpineLeaf_Network.spine[0].eth[0].mac packetReceivedFromUpper:sum(packetBytes) 417997
attr interpolationmode none
attr source packetReceivedFromUpper
attr title "packet bytes from higher layer, sum(packetBytes)"
scalar XHost_SpineLeaf_Network.spine[0].eth[0].mac passedUpPk:count 1226
attr interpolationmode none
attr source packetSentToUpper
attr title "packets passed to higher layer, count"
scalar XHost_SpineLeaf_Network.spine[0].eth[0].mac passedUpPk:sum(packetBytes) 390579
attr interpolationmode none
attr source packetSentToUpper
attr title "packets passed to higher layer, sum(packetBytes)"
scalar XHost_SpineLeaf_Network.spine[0].eth[0].mac packetDropIncorrectlyReceived:count 0
attr interpolationmode none
attr source packetDropReasonIsIncorrectlyReceived(packetDropped)
attr title "packet drop: incorrectly received, count"
scalar XHost_SpineLeaf_Network.spine[0].eth[0].mac packetDropIncorrectlyReceived:sum(packetBytes) 0
attr interpolationmode none
attr source packetDropReasonIsIncorrectlyReceived(packetDropped)
attr title "packet drop: incorrectly received, sum(packetBytes)"
scalar XHost_SpineLeaf_Network.spine[0].eth[0].mac packetDropInterfaceDown:count 0
attr interpolationmode none
attr source packetDropReasonIsInterfaceDown(packetDropped)
attr title "packet drop: interface down, count"
scalar XHost_SpineLeaf_Network.spine[0].eth[0].mac packetDropInterfaceDown:sum(packetBytes) 0
attr interpolationmode none
attr source packetDropReasonIsInterfaceDown(packetDropped)
attr title "packet drop: interface down, sum(packetBytes)"
scalar XHost_SpineLeaf_Network.spine[0].eth[0].mac packetDropNotAddressedToUs:count 0
attr interpolationmode none
attr source packetDropReasonIsNotAddressedToUs(packetDropped)
attr title "packet drop: not addressed to us, count"
scalar XHost_SpineLeaf_Network.spine[0].eth[0].mac packetDropNotAddressedToUs:sum(packetBytes) 0
attr interpolationmode none
attr source packetDropReasonIsNotAddressedToUs(packetDropped)
attr title "packet drop: not addressed to us, sum(packetBytes)"
scalar XHost_SpineLeaf_Network.spine[0].eth[0].mac rxPausePkUnits:count 0
attr interpolationmode none
attr title "pause units received, count"
scalar XHost_SpineLeaf_Network.spine[0].eth[0].mac rxPausePkUnits:sum 0
attr interpolationmode none
attr title "pause units received, sum"
scalar XHost_SpineLeaf_Network.spine[0].eth[0].mac txPausePkUnits:count 0
attr interpolationmode none
attr title "pause units sent, count"
scalar XHost_SpineLeaf_Network.spine[0].eth[0].mac txPausePkUnits:sum 0
attr interpolationmode none
attr title "pause units sent, sum"
scalar XHost_SpineLeaf_Network.spine[0].eth[0].mac rxPkOk:count 1226
attr interpolationmode none
attr source rxPkOk
attr title "packets received OK, count"
scalar XHost_SpineLeaf_Network.spine[0].eth[0].mac rxPkOk:sum(packetBytes) 390579
attr interpolationmode none
attr source rxPkOk
attr title "packets received OK, sum(packetBytes)"
scalar XHost_SpineLeaf_Network.spine[0].eth[0].encap pauseSent:count 0
attr title "pause sent, count"
scalar XHost_SpineLeaf_Network.spine[0].eth[0].encap pauseSent:sum 0
attr title "pause sent, sum"
scalar XHost_SpineLeaf_Network.spine[0].eth[0].encap decapPk:count 1226
attr interpolationmode none
attr source decapPk
attr title "packets decapsulated, count"
scalar XHost_SpineLeaf_Network.spine[0].eth[0].encap decapPk:sum(packetBytes) 368511
attr interpolationmode none
attr source decapPk
attr title "packets decapsulated, sum(packetBytes)"
scalar XHost_SpineLeaf_Network.spine[0].eth[0].encap encapPk:count 1246
attr interpolationmode none
attr source encapPk
attr title "packets encapsulated, count"
scalar XHost_SpineLeaf_Network.spine[0].eth[0].encap encapPk:sum(packetBytes) 395569
attr interpolationmode none
attr source encapPk
attr title "packets encapsulated, sum(packetBytes)"
scalar XHost_SpineLeaf_Network.spine[0].eth[1].mac.queue packetPopped:count 132
attr interpolationmode none
attr title "packet popped, count"
scalar XHost_SpineLeaf_Network.spine[0].eth[1].mac.queue packetPopped:sum(packetBytes) 43692
attr interpolationmode none
attr title "packet popped, sum(packetBytes)"
statistic XHost_SpineLeaf_Network.spine[0].eth[1].mac.queue queueingTime:histogram
field count 132
field mean 1.5212121212121e-006
field stddev 7.2743035164418e-006
field min 0
field max 4.24e-005
field sum 0.0002008
field sqrsum 7.2373888e-009
attr interpolationmode none
attr source queueingTime(packetPopped)
attr title "queueing times, histogram"
attr unit s
bin	-inf	0
bin	0	126
bin	1e-006	0
bin	2e-006	0
bin	3e-006	0
bin	4e-006	0
bin	5e-006	0
bin	6e-006	0
bin	7e-006	0
bin	8e-006	0
bin	9e-006	0
bin	1e-005	0
bin	1.1e-005	0
bin	1.2e-005	0
bin	1.3e-005	0
bin	1.4e-005	0
bin	1.5e-005	0
bin	1.6e-005	0
bin	1.7e-005	0
bin	1.8e-005	0
bin	1.9e-005	0
bin	2e-005	0
bin	2.1e-005	1
bin	2.2e-005	1
bin	2.3e-005	0
bin	2.4e-005	0
bin	2.5e-005	0
bin	2.6e-005	0
bin	2.7e-005	0
bin	2.8e-005	0
bin	2.9e-005	1
bin	3e-005	0
bin	3.1e-005	0
bin	3.2e-005	0
bin	3.3e-005	0
bin	3.4e-005	0
bin	3.5e-005	0
bin	3.6e-005	0
bin	3.7e-005	0
bin	3.8e-005	0
bin	3.9e-005	0
bin	4e-005	0
bin	4.1e-005	0
bin	4.2e-005	3
bin	4.3e-005	0
bin	4.4e-005	0
bin	4.5e-005	0
bin	4.6e-005	0
bin	4.7e-005	0
bin	4.8e-005	0
bin	4.9e-005	0
bin	5e-005	0
bin	5.1e-005	0
bin	5.2e-005	0
bin	5.3e-005	0
scalar XHost_SpineLeaf_Network.spine[0].eth[1].mac.queue queueLength:max 1
attr interpolationmode sample-hold
attr source "count(packetPushed) - count(packetPopped) - count(packetRemoved) - count(packetDropped)"
attr title "queue length, max"
scalar XHost_SpineLeaf_Network.spine[0].eth[1].mac.queue queueLength:timeavg 6.6801216480299e-007
attr interpolationmode sample-hold
attr source "count(packetPushed) - count(packetPopped) - count(packetRemoved) - count(packetDropped)"
attr title "queue length, timeavg"
scalar XHost_SpineLeaf_Network.spine[0].eth[1].mac.queue packetPushed:count 132
attr interpolationmode none
attr title "packet pushed, count"
scalar XHost_SpineLeaf_Network.spine[0].eth[1].mac.queue packetPushed:sum(packetBytes) 43692
attr interpolationmode none
attr title "packet pushed, sum(packetBytes)"
scalar XHost_SpineLeaf_Network.spine[0].eth[1].mac.queue packetDropQueueOverflow:count 0
attr interpolationmode none
attr source packetDropReasonIsQueueOverflow(packetDropped)
attr title "packet drops: queue overflow, count"
scalar XHost_SpineLeaf_Network.spine[0].eth[1].mac.queue packetDropQueueOverflow:sum(packetBytes) 0
attr interpolationmode none
attr source packetDropReasonIsQueueOverflow(packetDropped)
attr title "packet drops: queue overflow, sum(packetBytes)"
scalar XHost_SpineLeaf_Network.spine[0].eth[1].mac.queue packetRemoved:count 0
attr interpolationmode none
attr title "packets removed, count"
scalar XHost_SpineLeaf_Network.spine[0].eth[1].mac.queue packetRemoved:sum(packetBytes) 0
attr interpolationmode none
attr title "packets removed, sum(packetBytes)"
scalar XHost_SpineLeaf_Network.spine[0].eth[1].mac "simulated time" 301.69369669536
scalar XHost_SpineLeaf_Network.spine[0].eth[1].mac full-duplex 1
scalar XHost_SpineLeaf_Network.spine[0].eth[1].mac "frames/sec sent" 0.43752985708975
scalar XHost_SpineLeaf_Network.spine[0].eth[1].mac "frames/sec rcvd" 0.54359770123272
scalar XHost_SpineLeaf_Network.spine[0].eth[1].mac "bits/sec sent" 1158.5790615737
scalar XHost_SpineLeaf_Network.spine[0].eth[1].mac "bits/sec rcvd" 1443.2386382924
scalar XHost_SpineLeaf_Network.spine[0].eth[1].mac "rx channel idle (%)" 100
scalar XHost_SpineLeaf_Network.spine[0].eth[1].mac "rx channel utilization (%)" 0
scalar XHost_SpineLeaf_Network.spine[0].eth[1].mac txPk:count 132
attr interpolationmode none
attr source packetSentToLower
attr title "packets transmitted, count"
scalar XHost_SpineLeaf_Network.spine[0].eth[1].mac txPk:sum(packetBytes) 43692
attr interpolationmode none
attr source packetSentToLower
attr title "packets transmitted, sum(packetBytes)"
scalar XHost_SpineLeaf_Network.spine[0].eth[1].mac packetReceivedFromUpper:count 132
attr interpolationmode none
attr source packetReceivedFromUpper
attr title "packet bytes from higher layer, count"
scalar XHost_SpineLeaf_Network.spine[0].eth[1].mac packetReceivedFromUpper:sum(packetBytes) 43279
attr interpolationmode none
attr source packetReceivedFromUpper
attr title "packet bytes from higher layer, sum(packetBytes)"
scalar XHost_SpineLeaf_Network.spine[0].eth[1].mac passedUpPk:count 164
attr interpolationmode none
attr source packetSentToUpper
attr title "packets passed to higher layer, count"
scalar XHost_SpineLeaf_Network.spine[0].eth[1].mac passedUpPk:sum(packetBytes) 54427
attr interpolationmode none
attr source packetSentToUpper
attr title "packets passed to higher layer, sum(packetBytes)"
scalar XHost_SpineLeaf_Network.spine[0].eth[1].mac packetDropIncorrectlyReceived:count 0
attr interpolationmode none
attr source packetDropReasonIsIncorrectlyReceived(packetDropped)
attr title "packet drop: incorrectly received, count"
scalar XHost_SpineLeaf_Network.spine[0].eth[1].mac packetDropIncorrectlyReceived:sum(packetBytes) 0
attr interpolationmode none
attr source packetDropReasonIsIncorrectlyReceived(packetDropped)
attr title "packet drop: incorrectly received, sum(packetBytes)"
scalar XHost_SpineLeaf_Network.spine[0].eth[1].mac packetDropInterfaceDown:count 0
attr interpolationmode none
attr source packetDropReasonIsInterfaceDown(packetDropped)
attr title "packet drop: interface down, count"
scalar XHost_SpineLeaf_Network.spine[0].eth[1].mac packetDropInterfaceDown:sum(packetBytes) 0
attr interpolationmode none
attr source packetDropReasonIsInterfaceDown(packetDropped)
attr title "packet drop: interface down, sum(packetBytes)"
scalar XHost_SpineLeaf_Network.spine[0].eth[1].mac packetDropNotAddressedToUs:count 0
attr interpolationmode none
attr source packetDropReasonIsNotAddressedToUs(packetDropped)
attr title "packet drop: not addressed to us, count"
scalar XHost_SpineLeaf_Network.spine[0].eth[1].mac packetDropNotAddressedToUs:sum(packetBytes) 0
attr interpolationmode none
attr source packetDropReasonIsNotAddressedToUs(packetDropped)
attr title "packet drop: not addressed to us, sum(packetBytes)"
scalar XHost_SpineLeaf_Network.spine[0].eth[1].mac rxPausePkUnits:count 0
attr interpolationmode none
attr title "pause units received, count"
scalar XHost_SpineLeaf_Network.spine[0].eth[1].mac rxPausePkUnits:sum 0
attr interpolationmode none
attr title "pause units received, sum"
scalar XHost_SpineLeaf_Network.spine[0].eth[1].mac txPausePkUnits:count 0
attr interpolationmode none
attr title "pause units sent, count"
scalar XHost_SpineLeaf_Network.spine[0].eth[1].mac txPausePkUnits:sum 0
attr interpolationmode none
attr title "pause units sent, sum"
scalar XHost_SpineLeaf_Network.spine[0].eth[1].mac rxPkOk:count 164
attr interpolationmode none
attr source rxPkOk
attr title "packets received OK, count"
scalar XHost_SpineLeaf_Network.spine[0].eth[1].mac rxPkOk:sum(packetBytes) 54427
attr interpolationmode none
attr source rxPkOk
attr title "packets received OK, sum(packetBytes)"
scalar XHost_SpineLeaf_Network.spine[0].eth[1].encap pauseSent:count 0
attr title "pause sent, count"
scalar XHost_SpineLeaf_Network.spine[0].eth[1].encap pauseSent:sum 0
attr title "pause sent, sum"
scalar XHost_SpineLeaf_Network.spine[0].eth[1].encap decapPk:count 164
attr interpolationmode none
attr source decapPk
attr title "packets decapsulated, count"
scalar XHost_SpineLeaf_Network.spine[0].eth[1].encap decapPk:sum(packetBytes) 51475
attr interpolationmode none
attr source decapPk
attr title "packets decapsulated, sum(packetBytes)"
scalar XHost_SpineLeaf_Network.spine[0].eth[1].encap encapPk:count 132
attr interpolationmode none
attr source encapPk
attr title "packets encapsulated, count"
scalar XHost_SpineLeaf_Network.spine[0].eth[1].encap encapPk:sum(packetBytes) 40903
attr interpolationmode none
attr source encapPk
attr title "packets encapsulated, sum(packetBytes)"
scalar XHost_SpineLeaf_Network.spine[0].eth[2].mac.queue packetPopped:count 169
attr interpolationmode none
attr title "packet popped, count"
scalar XHost_SpineLeaf_Network.spine[0].eth[2].mac.queue packetPopped:sum(packetBytes) 55610
attr interpolationmode none
attr title "packet popped, sum(packetBytes)"
statistic XHost_SpineLeaf_Network.spine[0].eth[2].mac.queue queueingTime:histogram
field count 169
field mean 2.9344378698225e-006
field stddev 1.0466947061265e-005
field min 0
field max 4.24e-005
field sum 0.00049592
field sqrsum 1.98608192e-008
attr interpolationmode none
attr source queueingTime(packetPopped)
attr title "queueing times, histogram"
attr unit s
bin	-inf	0
bin	0	155
bin	1e-006	0
bin	2e-006	0
bin	3e-006	0
bin	4e-006	0
bin	5e-006	0
bin	6e-006	2
bin	7e-006	0
bin	8e-006	0
bin	9e-006	0
bin	1e-005	0
bin	1.1e-005	0
bin	1.2e-005	0
bin	1.3e-005	0
bin	1.4e-005	0
bin	1.5e-005	0
bin	1.6e-005	0
bin	1.7e-005	0
bin	1.8e-005	0
bin	1.9e-005	0
bin	2e-005	0
bin	2.1e-005	0
bin	2.2e-005	1
bin	2.3e-005	0
bin	2.4e-005	0
bin	2.5e-005	0
bin	2.6e-005	0
bin	2.7e-005	0
bin	2.8e-005	0
bin	2.9e-005	0
bin	3e-005	0
bin	3.1e-005	0
bin	3.2e-005	0
bin	3.3e-005	0
bin	3.4e-005	0
bin	3.5e-005	1
bin	3.6e-005	0
bin	3.7e-005	0
bin	3.8e-005	0
bin	3.9e-005	0
bin	4e-005	0
bin	4.1e-005	0
bin	4.2e-005	10
bin	4.3e-005	0
bin	4.4e-005	0
bin	4.5e-005	0
bin	4.6e-005	0
bin	4.7e-005	0
bin	4.8e-005	0
bin	4.9e-005	0
bin	5e-005	0
bin	5.1e-005	0
bin	5.2e-005	0
bin	5.3e-005	0
scalar XHost_SpineLeaf_Network.spine[0].eth[2].mac.queue queueLength:max 2
attr interpolationmode sample-hold
attr source "count(packetPushed) - count(packetPopped) - count(packetRemoved) - count(packetDropped)"
attr title "queue length, max"
scalar XHost_SpineLeaf_Network.spine[0].eth[2].mac.queue queueLength:timeavg 1.6498034154792e-006
attr interpolationmode sample-hold
attr source "count(packetPushed) - count(packetPopped) - count(packetRemoved) - count(packetDropped)"
attr title "queue length, timeavg"
scalar XHost_SpineLeaf_Network.spine[0].eth[2].mac.queue packetPushed:count 170
attr interpolationmode none
attr title "packet pushed, count"
scalar XHost_SpineLeaf_Network.spine[0].eth[2].mac.queue packetPushed:sum(packetBytes) 55674
attr interpolationmode none
attr title "packet pushed, sum(packetBytes)"
scalar XHost_SpineLeaf_Network.spine[0].eth[2].mac.queue packetDropQueueOverflow:count 1
attr interpolationmode none
attr source packetDropReasonIsQueueOverflow(packetDropped)
attr title "packet drops: queue overflow, count"
scalar XHost_SpineLeaf_Network.spine[0].eth[2].mac.queue packetDropQueueOverflow:sum(packetBytes) 64
attr interpolationmode none
attr source packetDropReasonIsQueueOverflow(packetDropped)
attr title "packet drops: queue overflow, sum(packetBytes)"
scalar XHost_SpineLeaf_Network.spine[0].eth[2].mac.queue packetRemoved:count 0
attr interpolationmode none
attr title "packets removed, count"
scalar XHost_SpineLeaf_Network.spine[0].eth[2].mac.queue packetRemoved:sum(packetBytes) 0
attr interpolationmode none
attr title "packets removed, sum(packetBytes)"
scalar XHost_SpineLeaf_Network.spine[0].eth[2].mac "simulated time" 301.69369669536
scalar XHost_SpineLeaf_Network.spine[0].eth[2].mac full-duplex 1
scalar XHost_SpineLeaf_Network.spine[0].eth[2].mac "frames/sec sent" 0.56017080188006
scalar XHost_SpineLeaf_Network.spine[0].eth[2].mac "frames/sec rcvd" 0.48061991877283
scalar XHost_SpineLeaf_Network.spine[0].eth[2].mac "bits/sec sent" 1474.6082031976
scalar XHost_SpineLeaf_Network.spine[0].eth[2].mac "bits/sec rcvd" 1237.1223001615
scalar XHost_SpineLeaf_Network.spine[0].eth[2].mac "rx channel idle (%)" 100
scalar XHost_SpineLeaf_Network.spine[0].eth[2].mac "rx channel utilization (%)" 0
scalar XHost_SpineLeaf_Network.spine[0].eth[2].mac txPk:count 169
attr interpolationmode none
attr source packetSentToLower
attr title "packets transmitted, count"
scalar XHost_SpineLeaf_Network.spine[0].eth[2].mac txPk:sum(packetBytes) 55610
attr interpolationmode none
attr source packetSentToLower
attr title "packets transmitted, sum(packetBytes)"
scalar XHost_SpineLeaf_Network.spine[0].eth[2].mac packetReceivedFromUpper:count 170
attr interpolationmode none
attr source packetReceivedFromUpper
attr title "packet bytes from higher layer, count"
scalar XHost_SpineLeaf_Network.spine[0].eth[2].mac packetReceivedFromUpper:sum(packetBytes) 55144
attr interpolationmode none
attr source packetReceivedFromUpper
attr title "packet bytes from higher layer, sum(packetBytes)"
scalar XHost_SpineLeaf_Network.spine[0].eth[2].mac passedUpPk:count 145
attr interpolationmode none
attr source packetSentToUpper
attr title "packets passed to higher layer, count"
scalar XHost_SpineLeaf_Network.spine[0].eth[2].mac passedUpPk:sum(packetBytes) 46654
attr interpolationmode none
attr source packetSentToUpper
attr title "packets passed to higher layer, sum(packetBytes)"
scalar XHost_SpineLeaf_Network.spine[0].eth[2].mac packetDropIncorrectlyReceived:count 0
attr interpolationmode none
attr source packetDropReasonIsIncorrectlyReceived(packetDropped)
attr title "packet drop: incorrectly received, count"
scalar XHost_SpineLeaf_Network.spine[0].eth[2].mac packetDropIncorrectlyReceived:sum(packetBytes) 0
attr interpolationmode none
attr source packetDropReasonIsIncorrectlyReceived(packetDropped)
attr title "packet drop: incorrectly received, sum(packetBytes)"
scalar XHost_SpineLeaf_Network.spine[0].eth[2].mac packetDropInterfaceDown:count 0
attr interpolationmode none
attr source packetDropReasonIsInterfaceDown(packetDropped)
attr title "packet drop: interface down, count"
scalar XHost_SpineLeaf_Network.spine[0].eth[2].mac packetDropInterfaceDown:sum(packetBytes) 0
attr interpolationmode none
attr source packetDropReasonIsInterfaceDown(packetDropped)
attr title "packet drop: interface down, sum(packetBytes)"
scalar XHost_SpineLeaf_Network.spine[0].eth[2].mac packetDropNotAddressedToUs:count 0
attr interpolationmode none
attr source packetDropReasonIsNotAddressedToUs(packetDropped)
attr title "packet drop: not addressed to us, count"
scalar XHost_SpineLeaf_Network.spine[0].eth[2].mac packetDropNotAddressedToUs:sum(packetBytes) 0
attr interpolationmode none
attr source packetDropReasonIsNotAddressedToUs(packetDropped)
attr title "packet drop: not addressed to us, sum(packetBytes)"
scalar XHost_SpineLeaf_Network.spine[0].eth[2].mac rxPausePkUnits:count 0
attr interpolationmode none
attr title "pause units received, count"
scalar XHost_SpineLeaf_Network.spine[0].eth[2].mac rxPausePkUnits:sum 0
attr interpolationmode none
attr title "pause units received, sum"
scalar XHost_SpineLeaf_Network.spine[0].eth[2].mac txPausePkUnits:count 0
attr interpolationmode none
attr title "pause units sent, count"
scalar XHost_SpineLeaf_Network.spine[0].eth[2].mac txPausePkUnits:sum 0
attr interpolationmode none
attr title "pause units sent, sum"
scalar XHost_SpineLeaf_Network.spine[0].eth[2].mac rxPkOk:count 145
attr interpolationmode none
attr source rxPkOk
attr title "packets received OK, count"
scalar XHost_SpineLeaf_Network.spine[0].eth[2].mac rxPkOk:sum(packetBytes) 46654
attr interpolationmode none
attr source rxPkOk
attr title "packets received OK, sum(packetBytes)"
scalar XHost_SpineLeaf_Network.spine[0].eth[2].encap pauseSent:count 0
attr title "pause sent, count"
scalar XHost_SpineLeaf_Network.spine[0].eth[2].encap pauseSent:sum 0
attr title "pause sent, sum"
scalar XHost_SpineLeaf_Network.spine[0].eth[2].encap decapPk:count 145
attr interpolationmode none
attr source decapPk
attr title "packets decapsulated, count"
scalar XHost_SpineLeaf_Network.spine[0].eth[2].encap decapPk:sum(packetBytes) 44044
attr interpolationmode none
attr source decapPk
attr title "packets decapsulated, sum(packetBytes)"
scalar XHost_SpineLeaf_Network.spine[0].eth[2].encap encapPk:count 170
attr interpolationmode none
attr source encapPk
attr title "packets encapsulated, count"
scalar XHost_SpineLeaf_Network.spine[0].eth[2].encap encapPk:sum(packetBytes) 52084
attr interpolationmode none
attr source encapPk
attr title "packets encapsulated, sum(packetBytes)"
scalar XHost_SpineLeaf_Network.spine[0].eth[3].mac.queue packetPopped:count 148
attr interpolationmode none
attr title "packet popped, count"
scalar XHost_SpineLeaf_Network.spine[0].eth[3].mac.queue packetPopped:sum(packetBytes) 46042
attr interpolationmode none
attr title "packet popped, sum(packetBytes)"
statistic XHost_SpineLeaf_Network.spine[0].eth[3].mac.queue queueingTime:histogram
field count 148
field mean 2.027027027027e-006
field stddev 8.4778565077059e-006
field min 0
field max 4.24e-005
field sum 0.0003
field sqrsum 1.11735936e-008
attr interpolationmode none
attr source queueingTime(packetPopped)
attr title "queueing times, histogram"
attr unit s
bin	-inf	0
bin	0	139
bin	1e-006	0
bin	2e-006	0
bin	3e-006	0
bin	4e-006	0
bin	5e-006	0
bin	6e-006	1
bin	7e-006	0
bin	8e-006	0
bin	9e-006	0
bin	1e-005	0
bin	1.1e-005	0
bin	1.2e-005	0
bin	1.3e-005	0
bin	1.4e-005	0
bin	1.5e-005	0
bin	1.6e-005	0
bin	1.7e-005	0
bin	1.8e-005	0
bin	1.9e-005	0
bin	2e-005	0
bin	2.1e-005	0
bin	2.2e-005	1
bin	2.3e-005	0
bin	2.4e-005	0
bin	2.5e-005	0
bin	2.6e-005	0
bin	2.7e-005	0
bin	2.8e-005	0
bin	2.9e-005	1
bin	3e-005	0
bin	3.1e-005	0
bin	3.2e-005	0
bin	3.3e-005	0
bin	3.4e-005	0
bin	3.5e-005	2
bin	3.6e-005	0
bin	3.7e-005	0
bin	3.8e-005	0
bin	3.9e-005	0
bin	4e-005	0
bin	4.1e-005	0
bin	4.2e-005	4
bin	4.3e-005	0
bin	4.4e-005	0
bin	4.5e-005	0
bin	4.6e-005	0
bin	4.7e-005	0
bin	4.8e-005	0
bin	4.9e-005	0
bin	5e-005	0
bin	5.1e-005	0
bin	5.2e-005	0
bin	5.3e-005	0
scalar XHost_SpineLeaf_Network.spine[0].eth[3].mac.queue queueLength:max 1
attr interpolationmode sample-hold
attr source "count(packetPushed) - count(packetPopped) - count(packetRemoved) - count(packetDropped)"
attr title "queue length, max"
scalar XHost_SpineLeaf_Network.spine[0].eth[3].mac.queue queueLength:timeavg 9.9769308929121e-007
attr interpolationmode sample-hold
attr source "count(packetPushed) - count(packetPopped) - count(packetRemoved) - count(packetDropped)"
attr title "queue length, timeavg"
scalar XHost_SpineLeaf_Network.spine[0].eth[3].mac.queue packetPushed:count 148
attr interpolationmode none
attr title "packet pushed, count"
scalar XHost_SpineLeaf_Network.spine[0].eth[3].mac.queue packetPushed:sum(packetBytes) 46042
attr interpolationmode none
attr title "packet pushed, sum(packetBytes)"
scalar XHost_SpineLeaf_Network.spine[0].eth[3].mac.queue packetDropQueueOverflow:count 0
attr interpolationmode none
attr source packetDropReasonIsQueueOverflow(packetDropped)
attr title "packet drops: queue overflow, count"
scalar XHost_SpineLeaf_Network.spine[0].eth[3].mac.queue packetDropQueueOverflow:sum(packetBytes) 0
attr interpolationmode none
attr source packetDropReasonIsQueueOverflow(packetDropped)
attr title "packet drops: queue overflow, sum(packetBytes)"
scalar XHost_SpineLeaf_Network.spine[0].eth[3].mac.queue packetRemoved:count 0
attr interpolationmode none
attr title "packets removed, count"
scalar XHost_SpineLeaf_Network.spine[0].eth[3].mac.queue packetRemoved:sum(packetBytes) 0
attr interpolationmode none
attr title "packets removed, sum(packetBytes)"
scalar XHost_SpineLeaf_Network.spine[0].eth[3].mac "simulated time" 301.69369669536
scalar XHost_SpineLeaf_Network.spine[0].eth[3].mac full-duplex 1
scalar XHost_SpineLeaf_Network.spine[0].eth[3].mac "frames/sec sent" 0.49056377916124
scalar XHost_SpineLeaf_Network.spine[0].eth[3].mac "frames/sec rcvd" 0.50050763954964
scalar XHost_SpineLeaf_Network.spine[0].eth[3].mac "bits/sec sent" 1220.8939200077
scalar XHost_SpineLeaf_Network.spine[0].eth[3].mac "bits/sec rcvd" 1268.1471445733
scalar XHost_SpineLeaf_Network.spine[0].eth[3].mac "rx channel idle (%)" 100
scalar XHost_SpineLeaf_Network.spine[0].eth[3].mac "rx channel utilization (%)" 0
scalar XHost_SpineLeaf_Network.spine[0].eth[3].mac txPk:count 148
attr interpolationmode none
attr source packetSentToLower
attr title "packets transmitted, count"
scalar XHost_SpineLeaf_Network.spine[0].eth[3].mac txPk:sum(packetBytes) 46042
attr interpolationmode none
attr source packetSentToLower
attr title "packets transmitted, sum(packetBytes)"
scalar XHost_SpineLeaf_Network.spine[0].eth[3].mac packetReceivedFromUpper:count 148
attr interpolationmode none
attr source packetReceivedFromUpper
attr title "packet bytes from higher layer, count"
scalar XHost_SpineLeaf_Network.spine[0].eth[3].mac packetReceivedFromUpper:sum(packetBytes) 45556
attr interpolationmode none
attr source packetReceivedFromUpper
attr title "packet bytes from higher layer, sum(packetBytes)"
scalar XHost_SpineLeaf_Network.spine[0].eth[3].mac passedUpPk:count 151
attr interpolationmode none
attr source packetSentToUpper
attr title "packets passed to higher layer, count"
scalar XHost_SpineLeaf_Network.spine[0].eth[3].mac passedUpPk:sum(packetBytes) 47824
attr interpolationmode none
attr source packetSentToUpper
attr title "packets passed to higher layer, sum(packetBytes)"
scalar XHost_SpineLeaf_Network.spine[0].eth[3].mac packetDropIncorrectlyReceived:count 0
attr interpolationmode none
attr source packetDropReasonIsIncorrectlyReceived(packetDropped)
attr title "packet drop: incorrectly received, count"
scalar XHost_SpineLeaf_Network.spine[0].eth[3].mac packetDropIncorrectlyReceived:sum(packetBytes) 0
attr interpolationmode none
attr source packetDropReasonIsIncorrectlyReceived(packetDropped)
attr title "packet drop: incorrectly received, sum(packetBytes)"
scalar XHost_SpineLeaf_Network.spine[0].eth[3].mac packetDropInterfaceDown:count 0
attr interpolationmode none
attr source packetDropReasonIsInterfaceDown(packetDropped)
attr title "packet drop: interface down, count"
scalar XHost_SpineLeaf_Network.spine[0].eth[3].mac packetDropInterfaceDown:sum(packetBytes) 0
attr interpolationmode none
attr source packetDropReasonIsInterfaceDown(packetDropped)
attr title "packet drop: interface down, sum(packetBytes)"
scalar XHost_SpineLeaf_Network.spine[0].eth[3].mac packetDropNotAddressedToUs:count 0
attr interpolationmode none
attr source packetDropReasonIsNotAddressedToUs(packetDropped)
attr title "packet drop: not addressed to us, count"
scalar XHost_SpineLeaf_Network.spine[0].eth[3].mac packetDropNotAddressedToUs:sum(packetBytes) 0
attr interpolationmode none
attr source packetDropReasonIsNotAddressedToUs(packetDropped)
attr title "packet drop: not addressed to us, sum(packetBytes)"
scalar XHost_SpineLeaf_Network.spine[0].eth[3].mac rxPausePkUnits:count 0
attr interpolationmode none
attr title "pause units received, count"
scalar XHost_SpineLeaf_Network.spine[0].eth[3].mac rxPausePkUnits:sum 0
attr interpolationmode none
attr title "pause units received, sum"
scalar XHost_SpineLeaf_Network.spine[0].eth[3].mac txPausePkUnits:count 0
attr interpolationmode none
attr title "pause units sent, count"
scalar XHost_SpineLeaf_Network.spine[0].eth[3].mac txPausePkUnits:sum 0
attr interpolationmode none
attr title "pause units sent, sum"
scalar XHost_SpineLeaf_Network.spine[0].eth[3].mac rxPkOk:count 151
attr interpolationmode none
attr source rxPkOk
attr title "packets received OK, count"
scalar XHost_SpineLeaf_Network.spine[0].eth[3].mac rxPkOk:sum(packetBytes) 47824
attr interpolationmode none
attr source rxPkOk
attr title "packets received OK, sum(packetBytes)"
scalar XHost_SpineLeaf_Network.spine[0].eth[3].encap pauseSent:count 0
attr title "pause sent, count"
scalar XHost_SpineLeaf_Network.spine[0].eth[3].encap pauseSent:sum 0
attr title "pause sent, sum"
scalar XHost_SpineLeaf_Network.spine[0].eth[3].encap decapPk:count 151
attr interpolationmode none
attr source decapPk
attr title "packets decapsulated, count"
scalar XHost_SpineLeaf_Network.spine[0].eth[3].encap decapPk:sum(packetBytes) 45106
attr interpolationmode none
attr source decapPk
attr title "packets decapsulated, sum(packetBytes)"
scalar XHost_SpineLeaf_Network.spine[0].eth[3].encap encapPk:count 148
attr interpolationmode none
attr source encapPk
attr title "packets encapsulated, count"
scalar XHost_SpineLeaf_Network.spine[0].eth[3].encap encapPk:sum(packetBytes) 42892
attr interpolationmode none
attr source encapPk
attr title "packets encapsulated, sum(packetBytes)"
scalar XHost_SpineLeaf_Network.spine[0].eth[4].mac.queue packetPopped:count 153
attr interpolationmode none
attr title "packet popped, count"
scalar XHost_SpineLeaf_Network.spine[0].eth[4].mac.queue packetPopped:sum(packetBytes) 52192
attr interpolationmode none
attr title "packet popped, sum(packetBytes)"
statistic XHost_SpineLeaf_Network.spine[0].eth[4].mac.queue queueingTime:histogram
field count 153
field mean 8.3137254901961e-007
field stddev 5.8979977711914e-006
field min 0
field max 4.24e-005
field sum 0.0001272
field sqrsum 5.39328e-009
attr interpolationmode none
attr source queueingTime(packetPopped)
attr title "queueing times, histogram"
attr unit s
bin	-inf	0
bin	0	150
bin	1e-006	0
bin	2e-006	0
bin	3e-006	0
bin	4e-006	0
bin	5e-006	0
bin	6e-006	0
bin	7e-006	0
bin	8e-006	0
bin	9e-006	0
bin	1e-005	0
bin	1.1e-005	0
bin	1.2e-005	0
bin	1.3e-005	0
bin	1.4e-005	0
bin	1.5e-005	0
bin	1.6e-005	0
bin	1.7e-005	0
bin	1.8e-005	0
bin	1.9e-005	0
bin	2e-005	0
bin	2.1e-005	0
bin	2.2e-005	0
bin	2.3e-005	0
bin	2.4e-005	0
bin	2.5e-005	0
bin	2.6e-005	0
bin	2.7e-005	0
bin	2.8e-005	0
bin	2.9e-005	0
bin	3e-005	0
bin	3.1e-005	0
bin	3.2e-005	0
bin	3.3e-005	0
bin	3.4e-005	0
bin	3.5e-005	0
bin	3.6e-005	0
bin	3.7e-005	0
bin	3.8e-005	0
bin	3.9e-005	0
bin	4e-005	0
bin	4.1e-005	0
bin	4.2e-005	3
bin	4.3e-005	0
bin	4.4e-005	0
bin	4.5e-005	0
bin	4.6e-005	0
bin	4.7e-005	0
bin	4.8e-005	0
bin	4.9e-005	0
bin	5e-005	0
bin	5.1e-005	0
bin	5.2e-005	0
bin	5.3e-005	0
scalar XHost_SpineLeaf_Network.spine[0].eth[4].mac.queue queueLength:max 1
attr interpolationmode sample-hold
attr source "count(packetPushed) - count(packetPopped) - count(packetRemoved) - count(packetDropped)"
attr title "queue length, max"
scalar XHost_SpineLeaf_Network.spine[0].eth[4].mac.queue queueLength:timeavg 4.2302186985947e-007
attr interpolationmode sample-hold
attr source "count(packetPushed) - count(packetPopped) - count(packetRemoved) - count(packetDropped)"
attr title "queue length, timeavg"
scalar XHost_SpineLeaf_Network.spine[0].eth[4].mac.queue packetPushed:count 153
attr interpolationmode none
attr title "packet pushed, count"
scalar XHost_SpineLeaf_Network.spine[0].eth[4].mac.queue packetPushed:sum(packetBytes) 52192
attr interpolationmode none
attr title "packet pushed, sum(packetBytes)"
scalar XHost_SpineLeaf_Network.spine[0].eth[4].mac.queue packetDropQueueOverflow:count 0
attr interpolationmode none
attr source packetDropReasonIsQueueOverflow(packetDropped)
attr title "packet drops: queue overflow, count"
scalar XHost_SpineLeaf_Network.spine[0].eth[4].mac.queue packetDropQueueOverflow:sum(packetBytes) 0
attr interpolationmode none
attr source packetDropReasonIsQueueOverflow(packetDropped)
attr title "packet drops: queue overflow, sum(packetBytes)"
scalar XHost_SpineLeaf_Network.spine[0].eth[4].mac.queue packetRemoved:count 0
attr interpolationmode none
attr title "packets removed, count"
scalar XHost_SpineLeaf_Network.spine[0].eth[4].mac.queue packetRemoved:sum(packetBytes) 0
attr interpolationmode none
attr title "packets removed, sum(packetBytes)"
scalar XHost_SpineLeaf_Network.spine[0].eth[4].mac "simulated time" 301.69369669536
scalar XHost_SpineLeaf_Network.spine[0].eth[4].mac full-duplex 1
scalar XHost_SpineLeaf_Network.spine[0].eth[4].mac "frames/sec sent" 0.50713687980858
scalar XHost_SpineLeaf_Network.spine[0].eth[4].mac "frames/sec rcvd" 0.50713687980858
scalar XHost_SpineLeaf_Network.spine[0].eth[4].mac "bits/sec sent" 1383.9732303775
scalar XHost_SpineLeaf_Network.spine[0].eth[4].mac "bits/sec rcvd" 1325.5563652157
scalar XHost_SpineLeaf_Network.spine[0].eth[4].mac "rx channel idle (%)" 100
scalar XHost_SpineLeaf_Network.spine[0].eth[4].mac "rx channel utilization (%)" 0
scalar XHost_SpineLeaf_Network.spine[0].eth[4].mac txPk:count 153
attr interpolationmode none
attr source packetSentToLower
attr title "packets transmitted, count"
scalar XHost_SpineLeaf_Network.spine[0].eth[4].mac txPk:sum(packetBytes) 52192
attr interpolationmode none
attr source packetSentToLower
attr title "packets transmitted, sum(packetBytes)"
scalar XHost_SpineLeaf_Network.spine[0].eth[4].mac packetReceivedFromUpper:count 153
attr interpolationmode none
attr source packetReceivedFromUpper
attr title "packet bytes from higher layer, count"
scalar XHost_SpineLeaf_Network.spine[0].eth[4].mac packetReceivedFromUpper:sum(packetBytes) 51742
attr interpolationmode none
attr source packetReceivedFromUpper
attr title "packet bytes from higher layer, sum(packetBytes)"
scalar XHost_SpineLeaf_Network.spine[0].eth[4].mac passedUpPk:count 153
attr interpolationmode none
attr source packetSentToUpper
attr title "packets passed to higher layer, count"
scalar XHost_SpineLeaf_Network.spine[0].eth[4].mac passedUpPk:sum(packetBytes) 49989
attr interpolationmode none
attr source packetSentToUpper
attr title "packets passed to higher layer, sum(packetBytes)"
scalar XHost_SpineLeaf_Network.spine[0].eth[4].mac packetDropIncorrectlyReceived:count 0
attr interpolationmode none
attr source packetDropReasonIsIncorrectlyReceived(packetDropped)
attr title "packet drop: incorrectly received, count"
scalar XHost_SpineLeaf_Network.spine[0].eth[4].mac packetDropIncorrectlyReceived:sum(packetBytes) 0
attr interpolationmode none
attr source packetDropReasonIsIncorrectlyReceived(packetDropped)
attr title "packet drop: incorrectly received, sum(packetBytes)"
scalar XHost_SpineLeaf_Network.spine[0].eth[4].mac packetDropInterfaceDown:count 0
attr interpolationmode none
attr source packetDropReasonIsInterfaceDown(packetDropped)
attr title "packet drop: interface down, count"
scalar XHost_SpineLeaf_Network.spine[0].eth[4].mac packetDropInterfaceDown:sum(packetBytes) 0
attr interpolationmode none
attr source packetDropReasonIsInterfaceDown(packetDropped)
attr title "packet drop: interface down, sum(packetBytes)"
scalar XHost_SpineLeaf_Network.spine[0].eth[4].mac packetDropNotAddressedToUs:count 0
attr interpolationmode none
attr source packetDropReasonIsNotAddressedToUs(packetDropped)
attr title "packet drop: not addressed to us, count"
scalar XHost_SpineLeaf_Network.spine[0].eth[4].mac packetDropNotAddressedToUs:sum(packetBytes) 0
attr interpolationmode none
attr source packetDropReasonIsNotAddressedToUs(packetDropped)
attr title "packet drop: not addressed to us, sum(packetBytes)"
scalar XHost_SpineLeaf_Network.spine[0].eth[4].mac rxPausePkUnits:count 0
attr interpolationmode none
attr title "pause units received, count"
scalar XHost_SpineLeaf_Network.spine[0].eth[4].mac rxPausePkUnits:sum 0
attr interpolationmode none
attr title "pause units received, sum"
scalar XHost_SpineLeaf_Network.spine[0].eth[4].mac txPausePkUnits:count 0
attr interpolationmode none
attr title "pause units sent, count"
scalar XHost_SpineLeaf_Network.spine[0].eth[4].mac txPausePkUnits:sum 0
attr interpolationmode none
attr title "pause units sent, sum"
scalar XHost_SpineLeaf_Network.spine[0].eth[4].mac rxPkOk:count 153
attr interpolationmode none
attr source rxPkOk
attr title "packets received OK, count"
scalar XHost_SpineLeaf_Network.spine[0].eth[4].mac rxPkOk:sum(packetBytes) 49989
attr interpolationmode none
attr source rxPkOk
attr title "packets received OK, sum(packetBytes)"
scalar XHost_SpineLeaf_Network.spine[0].eth[4].encap pauseSent:count 0
attr title "pause sent, count"
scalar XHost_SpineLeaf_Network.spine[0].eth[4].encap pauseSent:sum 0
attr title "pause sent, sum"
scalar XHost_SpineLeaf_Network.spine[0].eth[4].encap decapPk:count 153
attr interpolationmode none
attr source decapPk
attr title "packets decapsulated, count"
scalar XHost_SpineLeaf_Network.spine[0].eth[4].encap decapPk:sum(packetBytes) 47235
attr interpolationmode none
attr source decapPk
attr title "packets decapsulated, sum(packetBytes)"
scalar XHost_SpineLeaf_Network.spine[0].eth[4].encap encapPk:count 153
attr interpolationmode none
attr source encapPk
attr title "packets encapsulated, count"
scalar XHost_SpineLeaf_Network.spine[0].eth[4].encap encapPk:sum(packetBytes) 48988
attr interpolationmode none
attr source encapPk
attr title "packets encapsulated, sum(packetBytes)"
scalar XHost_SpineLeaf_Network.spine[0].eth[5].mac.queue packetPopped:count 149
attr interpolationmode none
attr title "packet popped, count"
scalar XHost_SpineLeaf_Network.spine[0].eth[5].mac.queue packetPopped:sum(packetBytes) 46570
attr interpolationmode none
attr title "packet popped, sum(packetBytes)"
statistic XHost_SpineLeaf_Network.spine[0].eth[5].mac.queue queueingTime:histogram
field count 149
field mean 8.0859060402685e-007
field stddev 5.6778156510888e-006
field min 0
field max 4.24e-005
field sum 0.00012048
field sqrsum 4.8685824e-009
attr interpolationmode none
attr source queueingTime(packetPopped)
attr title "queueing times, histogram"
attr unit s
bin	-inf	0
bin	-0.5	0
bin	-0.48	0
bin	-0.46	0
bin	-0.44	0
bin	-0.42	0
bin	-0.4	0
bin	-0.38	0
bin	-0.36	0
bin	-0.34	0
bin	-0.32	0
bin	-0.3	0
bin	-0.28	0
bin	-0.26	0
bin	-0.24	0
bin	-0.22	0
bin	-0.2	0
bin	-0.18	0
bin	-0.16	0
bin	-0.14	0
bin	-0.12	0
bin	-0.1	0
bin	-0.08	0
bin	-0.06	0
bin	-0.04	0
bin	-0.02	0
bin	0	149
bin	0.02	0
bin	0.04	0
bin	0.06	0
bin	0.08	0
bin	0.1	0
bin	0.12	0
bin	0.14	0
bin	0.16	0
bin	0.18	0
bin	0.2	0
bin	0.22	0
bin	0.24	0
bin	0.26	0
bin	0.28	0
bin	0.3	0
bin	0.32	0
bin	0.34	0
bin	0.36	0
bin	0.38	0
bin	0.4	0
bin	0.42	0
bin	0.44	0
bin	0.46	0
bin	0.48	0
bin	0.5	0
scalar XHost_SpineLeaf_Network.spine[0].eth[5].mac.queue queueLength:max 1
attr interpolationmode sample-hold
attr source "count(packetPushed) - count(packetPopped) - count(packetRemoved) - count(packetDropped)"
attr title "queue length, max"
scalar XHost_SpineLeaf_Network.spine[0].eth[5].mac.queue queueLength:timeavg 4.0067354465935e-007
attr interpolationmode sample-hold
attr source "count(packetPushed) - count(packetPopped) - count(packetRemoved) - count(packetDropped)"
attr title "queue length, timeavg"
scalar XHost_SpineLeaf_Network.spine[0].eth[5].mac.queue packetPushed:count 149
attr interpolationmode none
attr title "packet pushed, count"
scalar XHost_SpineLeaf_Network.spine[0].eth[5].mac.queue packetPushed:sum(packetBytes) 46570
attr interpolationmode none
attr title "packet pushed, sum(packetBytes)"
scalar XHost_SpineLeaf_Network.spine[0].eth[5].mac.queue packetDropQueueOverflow:count 0
attr interpolationmode none
attr source packetDropReasonIsQueueOverflow(packetDropped)
attr title "packet drops: queue overflow, count"
scalar XHost_SpineLeaf_Network.spine[0].eth[5].mac.queue packetDropQueueOverflow:sum(packetBytes) 0
attr interpolationmode none
attr source packetDropReasonIsQueueOverflow(packetDropped)
attr title "packet drops: queue overflow, sum(packetBytes)"
scalar XHost_SpineLeaf_Network.spine[0].eth[5].mac.queue packetRemoved:count 0
attr interpolationmode none
attr title "packets removed, count"
scalar XHost_SpineLeaf_Network.spine[0].eth[5].mac.queue packetRemoved:sum(packetBytes) 0
attr interpolationmode none
attr title "packets removed, sum(packetBytes)"
scalar XHost_SpineLeaf_Network.spine[0].eth[5].mac "simulated time" 301.69369669536
scalar XHost_SpineLeaf_Network.spine[0].eth[5].mac full-duplex 1
scalar XHost_SpineLeaf_Network.spine[0].eth[5].mac "frames/sec sent" 0.4938783992907
scalar XHost_SpineLeaf_Network.spine[0].eth[5].mac "frames/sec rcvd" 0.62977782459888
scalar XHost_SpineLeaf_Network.spine[0].eth[5].mac "bits/sec sent" 1234.8948754345
scalar XHost_SpineLeaf_Network.spine[0].eth[5].mac "bits/sec rcvd" 1783.8755197575
scalar XHost_SpineLeaf_Network.spine[0].eth[5].mac "rx channel idle (%)" 100
scalar XHost_SpineLeaf_Network.spine[0].eth[5].mac "rx channel utilization (%)" 0
scalar XHost_SpineLeaf_Network.spine[0].eth[5].mac txPk:count 149
attr interpolationmode none
attr source packetSentToLower
attr title "packets transmitted, count"
scalar XHost_SpineLeaf_Network.spine[0].eth[5].mac txPk:sum(packetBytes) 46570
attr interpolationmode none
attr source packetSentToLower
attr title "packets transmitted, sum(packetBytes)"
scalar XHost_SpineLeaf_Network.spine[0].eth[5].mac packetReceivedFromUpper:count 149
attr interpolationmode none
attr source packetReceivedFromUpper
attr title "packet bytes from higher layer, count"
scalar XHost_SpineLeaf_Network.spine[0].eth[5].mac packetReceivedFromUpper:sum(packetBytes) 46084
attr interpolationmode none
attr source packetReceivedFromUpper
attr title "packet bytes from higher layer, sum(packetBytes)"
scalar XHost_SpineLeaf_Network.spine[0].eth[5].mac passedUpPk:count 190
attr interpolationmode none
attr source packetSentToUpper
attr title "packets passed to higher layer, count"
scalar XHost_SpineLeaf_Network.spine[0].eth[5].mac passedUpPk:sum(packetBytes) 67273
attr interpolationmode none
attr source packetSentToUpper
attr title "packets passed to higher layer, sum(packetBytes)"
scalar XHost_SpineLeaf_Network.spine[0].eth[5].mac packetDropIncorrectlyReceived:count 0
attr interpolationmode none
attr source packetDropReasonIsIncorrectlyReceived(packetDropped)
attr title "packet drop: incorrectly received, count"
scalar XHost_SpineLeaf_Network.spine[0].eth[5].mac packetDropIncorrectlyReceived:sum(packetBytes) 0
attr interpolationmode none
attr source packetDropReasonIsIncorrectlyReceived(packetDropped)
attr title "packet drop: incorrectly received, sum(packetBytes)"
scalar XHost_SpineLeaf_Network.spine[0].eth[5].mac packetDropInterfaceDown:count 0
attr interpolationmode none
attr source packetDropReasonIsInterfaceDown(packetDropped)
attr title "packet drop: interface down, count"
scalar XHost_SpineLeaf_Network.spine[0].eth[5].mac packetDropInterfaceDown:sum(packetBytes) 0
attr interpolationmode none
attr source packetDropReasonIsInterfaceDown(packetDropped)
attr title "packet drop: interface down, sum(packetBytes)"
scalar XHost_SpineLeaf_Network.spine[0].eth[5].mac packetDropNotAddressedToUs:count 0
attr interpolationmode none
attr source packetDropReasonIsNotAddressedToUs(packetDropped)
attr title "packet drop: not addressed to us, count"
scalar XHost_SpineLeaf_Network.spine[0].eth[5].mac packetDropNotAddressedToUs:sum(packetBytes) 0
attr interpolationmode none
attr source packetDropReasonIsNotAddressedToUs(packetDropped)
attr title "packet drop: not addressed to us, sum(packetBytes)"
scalar XHost_SpineLeaf_Network.spine[0].eth[5].mac rxPausePkUnits:count 0
attr interpolationmode none
attr title "pause units received, count"
scalar XHost_SpineLeaf_Network.spine[0].eth[5].mac rxPausePkUnits:sum 0
attr interpolationmode none
attr title "pause units received, sum"
scalar XHost_SpineLeaf_Network.spine[0].eth[5].mac txPausePkUnits:count 0
attr interpolationmode none
attr title "pause units sent, count"
scalar XHost_SpineLeaf_Network.spine[0].eth[5].mac txPausePkUnits:sum 0
attr interpolationmode none
attr title "pause units sent, sum"
scalar XHost_SpineLeaf_Network.spine[0].eth[5].mac rxPkOk:count 190
attr interpolationmode none
attr source rxPkOk
attr title "packets received OK, count"
scalar XHost_SpineLeaf_Network.spine[0].eth[5].mac rxPkOk:sum(packetBytes) 67273
attr interpolationmode none
attr source rxPkOk
attr title "packets received OK, sum(packetBytes)"
scalar XHost_SpineLeaf_Network.spine[0].eth[5].encap pauseSent:count 0
attr title "pause sent, count"
scalar XHost_SpineLeaf_Network.spine[0].eth[5].encap pauseSent:sum 0
attr title "pause sent, sum"
scalar XHost_SpineLeaf_Network.spine[0].eth[5].encap decapPk:count 190
attr interpolationmode none
attr source decapPk
attr title "packets decapsulated, count"
scalar XHost_SpineLeaf_Network.spine[0].eth[5].encap decapPk:sum(packetBytes) 63853
attr interpolationmode none
attr source decapPk
attr title "packets decapsulated, sum(packetBytes)"
scalar XHost_SpineLeaf_Network.spine[0].eth[5].encap encapPk:count 149
attr interpolationmode none
attr source encapPk
attr title "packets encapsulated, count"
scalar XHost_SpineLeaf_Network.spine[0].eth[5].encap encapPk:sum(packetBytes) 43402
attr interpolationmode none
attr source encapPk
attr title "packets encapsulated, sum(packetBytes)"
scalar XHost_SpineLeaf_Network.spine[0].eth[6].mac.queue packetPopped:count 159
attr interpolationmode none
attr title "packet popped, count"
scalar XHost_SpineLeaf_Network.spine[0].eth[6].mac.queue packetPopped:sum(packetBytes) 47493
attr interpolationmode none
attr title "packet popped, sum(packetBytes)"
statistic XHost_SpineLeaf_Network.spine[0].eth[6].mac.queue queueingTime:histogram
field count 159
field mean 1.2910691823899e-006
field stddev 7.0306063795951e-006
field min 0
field max 4.24e-005
field sum 0.00020528
field sqrsum 8.07488e-009
attr interpolationmode none
attr source queueingTime(packetPopped)
attr title "queueing times, histogram"
attr unit s
bin	-inf	0
bin	0	153
bin	1e-006	0
bin	2e-006	0
bin	3e-006	0
bin	4e-006	0
bin	5e-006	0
bin	6e-006	1
bin	7e-006	0
bin	8e-006	0
bin	9e-006	0
bin	1e-005	0
bin	1.1e-005	0
bin	1.2e-005	0
bin	1.3e-005	0
bin	1.4e-005	0
bin	1.5e-005	0
bin	1.6e-005	0
bin	1.7e-005	0
bin	1.8e-005	0
bin	1.9e-005	0
bin	2e-005	0
bin	2.1e-005	0
bin	2.2e-005	0
bin	2.3e-005	0
bin	2.4e-005	0
bin	2.5e-005	0
bin	2.6e-005	0
bin	2.7e-005	0
bin	2.8e-005	1
bin	2.9e-005	0
bin	3e-005	0
bin	3.1e-005	0
bin	3.2e-005	0
bin	3.3e-005	0
bin	3.4e-005	0
bin	3.5e-005	0
bin	3.6e-005	0
bin	3.7e-005	0
bin	3.8e-005	0
bin	3.9e-005	0
bin	4e-005	0
bin	4.1e-005	0
bin	4.2e-005	4
bin	4.3e-005	0
bin	4.4e-005	0
bin	4.5e-005	0
bin	4.6e-005	0
bin	4.7e-005	0
bin	4.8e-005	0
bin	4.9e-005	0
bin	5e-005	0
bin	5.1e-005	0
bin	5.2e-005	0
bin	5.3e-005	0
scalar XHost_SpineLeaf_Network.spine[0].eth[6].mac.queue queueLength:max 1
attr interpolationmode sample-hold
attr source "count(packetPushed) - count(packetPopped) - count(packetRemoved) - count(packetDropped)"
attr title "queue length, max"
scalar XHost_SpineLeaf_Network.spine[0].eth[6].mac.queue queueLength:timeavg 7.0375212371633e-007
attr interpolationmode sample-hold
attr source "count(packetPushed) - count(packetPopped) - count(packetRemoved) - count(packetDropped)"
attr title "queue length, timeavg"
scalar XHost_SpineLeaf_Network.spine[0].eth[6].mac.queue packetPushed:count 159
attr interpolationmode none
attr title "packet pushed, count"
scalar XHost_SpineLeaf_Network.spine[0].eth[6].mac.queue packetPushed:sum(packetBytes) 47493
attr interpolationmode none
attr title "packet pushed, sum(packetBytes)"
scalar XHost_SpineLeaf_Network.spine[0].eth[6].mac.queue packetDropQueueOverflow:count 0
attr interpolationmode none
attr source packetDropReasonIsQueueOverflow(packetDropped)
attr title "packet drops: queue overflow, count"
scalar XHost_SpineLeaf_Network.spine[0].eth[6].mac.queue packetDropQueueOverflow:sum(packetBytes) 0
attr interpolationmode none
attr source packetDropReasonIsQueueOverflow(packetDropped)
attr title "packet drops: queue overflow, sum(packetBytes)"
scalar XHost_SpineLeaf_Network.spine[0].eth[6].mac.queue packetRemoved:count 0
attr interpolationmode none
attr title "packets removed, count"
scalar XHost_SpineLeaf_Network.spine[0].eth[6].mac.queue packetRemoved:sum(packetBytes) 0
attr interpolationmode none
attr title "packets removed, sum(packetBytes)"
scalar XHost_SpineLeaf_Network.spine[0].eth[6].mac "simulated time" 301.69369669536
scalar XHost_SpineLeaf_Network.spine[0].eth[6].mac full-duplex 1
scalar XHost_SpineLeaf_Network.spine[0].eth[6].mac "frames/sec sent" 0.52702460058538
scalar XHost_SpineLeaf_Network.spine[0].eth[6].mac "frames/sec rcvd" 0.48724915903177
scalar XHost_SpineLeaf_Network.spine[0].eth[6].mac "bits/sec sent" 1259.3700304705
scalar XHost_SpineLeaf_Network.spine[0].eth[6].mac "bits/sec rcvd" 1373.7907173397
scalar XHost_SpineLeaf_Network.spine[0].eth[6].mac "rx channel idle (%)" 100
scalar XHost_SpineLeaf_Network.spine[0].eth[6].mac "rx channel utilization (%)" 0
scalar XHost_SpineLeaf_Network.spine[0].eth[6].mac txPk:count 159
attr interpolationmode none
attr source packetSentToLower
attr title "packets transmitted, count"
scalar XHost_SpineLeaf_Network.spine[0].eth[6].mac txPk:sum(packetBytes) 47493
attr interpolationmode none
attr source packetSentToLower
attr title "packets transmitted, sum(packetBytes)"
scalar XHost_SpineLeaf_Network.spine[0].eth[6].mac packetReceivedFromUpper:count 159
attr interpolationmode none
attr source packetReceivedFromUpper
attr title "packet bytes from higher layer, count"
scalar XHost_SpineLeaf_Network.spine[0].eth[6].mac packetReceivedFromUpper:sum(packetBytes) 46957
attr interpolationmode none
attr source packetReceivedFromUpper
attr title "packet bytes from higher layer, sum(packetBytes)"
scalar XHost_SpineLeaf_Network.spine[0].eth[6].mac passedUpPk:count 147
attr interpolationmode none
attr source packetSentToUpper
attr title "packets passed to higher layer, count"
scalar XHost_SpineLeaf_Network.spine[0].eth[6].mac passedUpPk:sum(packetBytes) 51808
attr interpolationmode none
attr source packetSentToUpper
attr title "packets passed to higher layer, sum(packetBytes)"
scalar XHost_SpineLeaf_Network.spine[0].eth[6].mac packetDropIncorrectlyReceived:count 0
attr interpolationmode none
attr source packetDropReasonIsIncorrectlyReceived(packetDropped)
attr title "packet drop: incorrectly received, count"
scalar XHost_SpineLeaf_Network.spine[0].eth[6].mac packetDropIncorrectlyReceived:sum(packetBytes) 0
attr interpolationmode none
attr source packetDropReasonIsIncorrectlyReceived(packetDropped)
attr title "packet drop: incorrectly received, sum(packetBytes)"
scalar XHost_SpineLeaf_Network.spine[0].eth[6].mac packetDropInterfaceDown:count 0
attr interpolationmode none
attr source packetDropReasonIsInterfaceDown(packetDropped)
attr title "packet drop: interface down, count"
scalar XHost_SpineLeaf_Network.spine[0].eth[6].mac packetDropInterfaceDown:sum(packetBytes) 0
attr interpolationmode none
attr source packetDropReasonIsInterfaceDown(packetDropped)
attr title "packet drop: interface down, sum(packetBytes)"
scalar XHost_SpineLeaf_Network.spine[0].eth[6].mac packetDropNotAddressedToUs:count 0
attr interpolationmode none
attr source packetDropReasonIsNotAddressedToUs(packetDropped)
attr title "packet drop: not addressed to us, count"
scalar XHost_SpineLeaf_Network.spine[0].eth[6].mac packetDropNotAddressedToUs:sum(packetBytes) 0
attr interpolationmode none
attr source packetDropReasonIsNotAddressedToUs(packetDropped)
attr title "packet drop: not addressed to us, sum(packetBytes)"
scalar XHost_SpineLeaf_Network.spine[0].eth[6].mac rxPausePkUnits:count 0
attr interpolationmode none
attr title "pause units received, count"
scalar XHost_SpineLeaf_Network.spine[0].eth[6].mac rxPausePkUnits:sum 0
attr interpolationmode none
attr title "pause units received, sum"
scalar XHost_SpineLeaf_Network.spine[0].eth[6].mac txPausePkUnits:count 0
attr interpolationmode none
attr title "pause units sent, count"
scalar XHost_SpineLeaf_Network.spine[0].eth[6].mac txPausePkUnits:sum 0
attr interpolationmode none
attr title "pause units sent, sum"
scalar XHost_SpineLeaf_Network.spine[0].eth[6].mac rxPkOk:count 147
attr interpolationmode none
attr source rxPkOk
attr title "packets received OK, count"
scalar XHost_SpineLeaf_Network.spine[0].eth[6].mac rxPkOk:sum(packetBytes) 51808
attr interpolationmode none
attr source rxPkOk
attr title "packets received OK, sum(packetBytes)"
scalar XHost_SpineLeaf_Network.spine[0].eth[6].encap pauseSent:count 0
attr title "pause sent, count"
scalar XHost_SpineLeaf_Network.spine[0].eth[6].encap pauseSent:sum 0
attr title "pause sent, sum"
scalar XHost_SpineLeaf_Network.spine[0].eth[6].encap decapPk:count 147
attr interpolationmode none
attr source decapPk
attr title "packets decapsulated, count"
scalar XHost_SpineLeaf_Network.spine[0].eth[6].encap decapPk:sum(packetBytes) 49162
attr interpolationmode none
attr source decapPk
attr title "packets decapsulated, sum(packetBytes)"
scalar XHost_SpineLeaf_Network.spine[0].eth[6].encap encapPk:count 159
attr interpolationmode none
attr source encapPk
attr title "packets encapsulated, count"
scalar XHost_SpineLeaf_Network.spine[0].eth[6].encap encapPk:sum(packetBytes) 44095
attr interpolationmode none
attr source encapPk
attr title "packets encapsulated, sum(packetBytes)"
scalar XHost_SpineLeaf_Network.spine[0].eth[7].mac.queue packetPopped:count 174
attr interpolationmode none
attr title "packet popped, count"
scalar XHost_SpineLeaf_Network.spine[0].eth[7].mac.queue packetPopped:sum(packetBytes) 55144
attr interpolationmode none
attr title "packet popped, sum(packetBytes)"
statistic XHost_SpineLeaf_Network.spine[0].eth[7].mac.queue queueingTime:histogram
field count 174
field mean 2.9406896551724e-006
field stddev 9.5682516680977e-006
field min 0
field max 4.24e-005
field sum 0.00051168
field sqrsum 1.73430912e-008
attr interpolationmode none
attr source queueingTime(packetPopped)
attr title "queueing times, histogram"
attr unit s
bin	-inf	0
bin	0	157
bin	1e-006	0
bin	2e-006	0
bin	3e-006	0
bin	4e-006	0
bin	5e-006	0
bin	6e-006	1
bin	7e-006	0
bin	8e-006	0
bin	9e-006	0
bin	1e-005	0
bin	1.1e-005	0
bin	1.2e-005	0
bin	1.3e-005	1
bin	1.4e-005	0
bin	1.5e-005	0
bin	1.6e-005	0
bin	1.7e-005	0
bin	1.8e-005	0
bin	1.9e-005	0
bin	2e-005	0
bin	2.1e-005	0
bin	2.2e-005	5
bin	2.3e-005	0
bin	2.4e-005	0
bin	2.5e-005	0
bin	2.6e-005	0
bin	2.7e-005	0
bin	2.8e-005	1
bin	2.9e-005	1
bin	3e-005	0
bin	3.1e-005	0
bin	3.2e-005	0
bin	3.3e-005	0
bin	3.4e-005	0
bin	3.5e-005	3
bin	3.6e-005	0
bin	3.7e-005	0
bin	3.8e-005	0
bin	3.9e-005	0
bin	4e-005	0
bin	4.1e-005	0
bin	4.2e-005	5
bin	4.3e-005	0
bin	4.4e-005	0
bin	4.5e-005	0
bin	4.6e-005	0
bin	4.7e-005	0
bin	4.8e-005	0
bin	4.9e-005	0
bin	5e-005	0
bin	5.1e-005	0
bin	5.2e-005	0
bin	5.3e-005	0
scalar XHost_SpineLeaf_Network.spine[0].eth[7].mac.queue queueLength:max 1
attr interpolationmode sample-hold
attr source "count(packetPushed) - count(packetPopped) - count(packetRemoved) - count(packetDropped)"
attr title "queue length, max"
scalar XHost_SpineLeaf_Network.spine[0].eth[7].mac.queue queueLength:timeavg 1.754169262808e-006
attr interpolationmode sample-hold
attr source "count(packetPushed) - count(packetPopped) - count(packetRemoved) - count(packetDropped)"
attr title "queue length, timeavg"
scalar XHost_SpineLeaf_Network.spine[0].eth[7].mac.queue packetPushed:count 174
attr interpolationmode none
attr title "packet pushed, count"
scalar XHost_SpineLeaf_Network.spine[0].eth[7].mac.queue packetPushed:sum(packetBytes) 55144
attr interpolationmode none
attr title "packet pushed, sum(packetBytes)"
scalar XHost_SpineLeaf_Network.spine[0].eth[7].mac.queue packetDropQueueOverflow:count 0
attr interpolationmode none
attr source packetDropReasonIsQueueOverflow(packetDropped)
attr title "packet drops: queue overflow, count"
scalar XHost_SpineLeaf_Network.spine[0].eth[7].mac.queue packetDropQueueOverflow:sum(packetBytes) 0
attr interpolationmode none
attr source packetDropReasonIsQueueOverflow(packetDropped)
attr title "packet drops: queue overflow, sum(packetBytes)"
scalar XHost_SpineLeaf_Network.spine[0].eth[7].mac.queue packetRemoved:count 0
attr interpolationmode none
attr title "packets removed, count"
scalar XHost_SpineLeaf_Network.spine[0].eth[7].mac.queue packetRemoved:sum(packetBytes) 0
attr interpolationmode none
attr title "packets removed, sum(packetBytes)"
scalar XHost_SpineLeaf_Network.spine[0].eth[7].mac "simulated time" 301.69369669536
scalar XHost_SpineLeaf_Network.spine[0].eth[7].mac full-duplex 1
scalar XHost_SpineLeaf_Network.spine[0].eth[7].mac "frames/sec sent" 0.5767439025274
scalar XHost_SpineLeaf_Network.spine[0].eth[7].mac "frames/sec rcvd" 0.4839345389023
scalar XHost_SpineLeaf_Network.spine[0].eth[7].mac "bits/sec sent" 1462.251299355
scalar XHost_SpineLeaf_Network.spine[0].eth[7].mac "bits/sec rcvd" 1372.0936318335
scalar XHost_SpineLeaf_Network.spine[0].eth[7].mac "rx channel idle (%)" 100
scalar XHost_SpineLeaf_Network.spine[0].eth[7].mac "rx channel utilization (%)" 0
scalar XHost_SpineLeaf_Network.spine[0].eth[7].mac txPk:count 174
attr interpolationmode none
attr source packetSentToLower
attr title "packets transmitted, count"
scalar XHost_SpineLeaf_Network.spine[0].eth[7].mac txPk:sum(packetBytes) 55144
attr interpolationmode none
attr source packetSentToLower
attr title "packets transmitted, sum(packetBytes)"
scalar XHost_SpineLeaf_Network.spine[0].eth[7].mac packetReceivedFromUpper:count 174
attr interpolationmode none
attr source packetReceivedFromUpper
attr title "packet bytes from higher layer, count"
scalar XHost_SpineLeaf_Network.spine[0].eth[7].mac packetReceivedFromUpper:sum(packetBytes) 54584
attr interpolationmode none
attr source packetReceivedFromUpper
attr title "packet bytes from higher layer, sum(packetBytes)"
scalar XHost_SpineLeaf_Network.spine[0].eth[7].mac passedUpPk:count 146
attr interpolationmode none
attr source packetSentToUpper
attr title "packets passed to higher layer, count"
scalar XHost_SpineLeaf_Network.spine[0].eth[7].mac passedUpPk:sum(packetBytes) 51744
attr interpolationmode none
attr source packetSentToUpper
attr title "packets passed to higher layer, sum(packetBytes)"
scalar XHost_SpineLeaf_Network.spine[0].eth[7].mac packetDropIncorrectlyReceived:count 0
attr interpolationmode none
attr source packetDropReasonIsIncorrectlyReceived(packetDropped)
attr title "packet drop: incorrectly received, count"
scalar XHost_SpineLeaf_Network.spine[0].eth[7].mac packetDropIncorrectlyReceived:sum(packetBytes) 0
attr interpolationmode none
attr source packetDropReasonIsIncorrectlyReceived(packetDropped)
attr title "packet drop: incorrectly received, sum(packetBytes)"
scalar XHost_SpineLeaf_Network.spine[0].eth[7].mac packetDropInterfaceDown:count 0
attr interpolationmode none
attr source packetDropReasonIsInterfaceDown(packetDropped)
attr title "packet drop: interface down, count"
scalar XHost_SpineLeaf_Network.spine[0].eth[7].mac packetDropInterfaceDown:sum(packetBytes) 0
attr interpolationmode none
attr source packetDropReasonIsInterfaceDown(packetDropped)
attr title "packet drop: interface down, sum(packetBytes)"
scalar XHost_SpineLeaf_Network.spine[0].eth[7].mac packetDropNotAddressedToUs:count 0
attr interpolationmode none
attr source packetDropReasonIsNotAddressedToUs(packetDropped)
attr title "packet drop: not addressed to us, count"
scalar XHost_SpineLeaf_Network.spine[0].eth[7].mac packetDropNotAddressedToUs:sum(packetBytes) 0
attr interpolationmode none
attr source packetDropReasonIsNotAddressedToUs(packetDropped)
attr title "packet drop: not addressed to us, sum(packetBytes)"
scalar XHost_SpineLeaf_Network.spine[0].eth[7].mac rxPausePkUnits:count 0
attr interpolationmode none
attr title "pause units received, count"
scalar XHost_SpineLeaf_Network.spine[0].eth[7].mac rxPausePkUnits:sum 0
attr interpolationmode none
attr title "pause units received, sum"
scalar XHost_SpineLeaf_Network.spine[0].eth[7].mac txPausePkUnits:count 0
attr interpolationmode none
attr title "pause units sent, count"
scalar XHost_SpineLeaf_Network.spine[0].eth[7].mac txPausePkUnits:sum 0
attr interpolationmode none
attr title "pause units sent, sum"
scalar XHost_SpineLeaf_Network.spine[0].eth[7].mac rxPkOk:count 146
attr interpolationmode none
attr source rxPkOk
attr title "packets received OK, count"
scalar XHost_SpineLeaf_Network.spine[0].eth[7].mac rxPkOk:sum(packetBytes) 51744
attr interpolationmode none
attr source rxPkOk
attr title "packets received OK, sum(packetBytes)"
scalar XHost_SpineLeaf_Network.spine[0].eth[7].encap pauseSent:count 0
attr title "pause sent, count"
scalar XHost_SpineLeaf_Network.spine[0].eth[7].encap pauseSent:sum 0
attr title "pause sent, sum"
scalar XHost_SpineLeaf_Network.spine[0].eth[7].encap decapPk:count 146
attr interpolationmode none
attr source decapPk
attr title "packets decapsulated, count"
scalar XHost_SpineLeaf_Network.spine[0].eth[7].encap decapPk:sum(packetBytes) 49116
attr interpolationmode none
attr source decapPk
attr title "packets decapsulated, sum(packetBytes)"
scalar XHost_SpineLeaf_Network.spine[0].eth[7].encap encapPk:count 174
attr interpolationmode none
attr source encapPk
attr title "packets encapsulated, count"
scalar XHost_SpineLeaf_Network.spine[0].eth[7].encap encapPk:sum(packetBytes) 51452
attr interpolationmode none
attr source encapPk
attr title "packets encapsulated, sum(packetBytes)"
scalar XHost_SpineLeaf_Network.spine[0].eth[8].mac.queue packetPopped:count 135
attr interpolationmode none
attr title "packet popped, count"
scalar XHost_SpineLeaf_Network.spine[0].eth[8].mac.queue packetPopped:sum(packetBytes) 43388
attr interpolationmode none
attr title "packet popped, sum(packetBytes)"
statistic XHost_SpineLeaf_Network.spine[0].eth[8].mac.queue queueingTime:histogram
field count 135
field mean 2.0398518518519e-006
field stddev 8.6878293654034e-006
field min 0
field max 4.24e-005
field sum 0.00027538
field sqrsum 1.06758372e-008
attr interpolationmode none
attr source queueingTime(packetPopped)
attr title "queueing times, histogram"
attr unit s
bin	-inf	0
bin	0	127
bin	1e-006	0
bin	2e-006	0
bin	3e-006	0
bin	4e-006	0
bin	5e-006	0
bin	6e-006	1
bin	7e-006	0
bin	8e-006	0
bin	9e-006	0
bin	1e-005	0
bin	1.1e-005	0
bin	1.2e-005	0
bin	1.3e-005	0
bin	1.4e-005	0
bin	1.5e-005	0
bin	1.6e-005	0
bin	1.7e-005	0
bin	1.8e-005	0
bin	1.9e-005	0
bin	2e-005	0
bin	2.1e-005	0
bin	2.2e-005	1
bin	2.3e-005	0
bin	2.4e-005	0
bin	2.5e-005	0
bin	2.6e-005	0
bin	2.7e-005	0
bin	2.8e-005	0
bin	2.9e-005	0
bin	3e-005	0
bin	3.1e-005	0
bin	3.2e-005	0
bin	3.3e-005	0
bin	3.4e-005	0
bin	3.5e-005	1
bin	3.6e-005	0
bin	3.7e-005	0
bin	3.8e-005	0
bin	3.9e-005	0
bin	4e-005	1
bin	4.1e-005	0
bin	4.2e-005	4
bin	4.3e-005	0
bin	4.4e-005	0
bin	4.5e-005	0
bin	4.6e-005	0
bin	4.7e-005	0
bin	4.8e-005	0
bin	4.9e-005	0
bin	5e-005	0
bin	5.1e-005	0
bin	5.2e-005	0
bin	5.3e-005	0
scalar XHost_SpineLeaf_Network.spine[0].eth[8].mac.queue queueLength:max 1
attr interpolationmode sample-hold
attr source "count(packetPushed) - count(packetPopped) - count(packetRemoved) - count(packetDropped)"
attr title "queue length, max"
scalar XHost_SpineLeaf_Network.spine[0].eth[8].mac.queue queueLength:timeavg 9.1581574309671e-007
attr interpolationmode sample-hold
attr source "count(packetPushed) - count(packetPopped) - count(packetRemoved) - count(packetDropped)"
attr title "queue length, timeavg"
scalar XHost_SpineLeaf_Network.spine[0].eth[8].mac.queue packetPushed:count 135
attr interpolationmode none
attr title "packet pushed, count"
scalar XHost_SpineLeaf_Network.spine[0].eth[8].mac.queue packetPushed:sum(packetBytes) 43388
attr interpolationmode none
attr title "packet pushed, sum(packetBytes)"
scalar XHost_SpineLeaf_Network.spine[0].eth[8].mac.queue packetDropQueueOverflow:count 0
attr interpolationmode none
attr source packetDropReasonIsQueueOverflow(packetDropped)
attr title "packet drops: queue overflow, count"
scalar XHost_SpineLeaf_Network.spine[0].eth[8].mac.queue packetDropQueueOverflow:sum(packetBytes) 0
attr interpolationmode none
attr source packetDropReasonIsQueueOverflow(packetDropped)
attr title "packet drops: queue overflow, sum(packetBytes)"
scalar XHost_SpineLeaf_Network.spine[0].eth[8].mac.queue packetRemoved:count 0
attr interpolationmode none
attr title "packets removed, count"
scalar XHost_SpineLeaf_Network.spine[0].eth[8].mac.queue packetRemoved:sum(packetBytes) 0
attr interpolationmode none
attr title "packets removed, sum(packetBytes)"
scalar XHost_SpineLeaf_Network.spine[0].eth[8].mac "simulated time" 301.69369669536
scalar XHost_SpineLeaf_Network.spine[0].eth[8].mac full-duplex 1
scalar XHost_SpineLeaf_Network.spine[0].eth[8].mac "frames/sec sent" 0.44747371747815
scalar XHost_SpineLeaf_Network.spine[0].eth[8].mac "frames/sec rcvd" 0.47730529864336
scalar XHost_SpineLeaf_Network.spine[0].eth[8].mac "bits/sec sent" 1150.5179054188
scalar XHost_SpineLeaf_Network.spine[0].eth[8].mac "bits/sec rcvd" 1368.6994608209
scalar XHost_SpineLeaf_Network.spine[0].eth[8].mac "rx channel idle (%)" 100
scalar XHost_SpineLeaf_Network.spine[0].eth[8].mac "rx channel utilization (%)" 0
scalar XHost_SpineLeaf_Network.spine[0].eth[8].mac txPk:count 135
attr interpolationmode none
attr source packetSentToLower
attr title "packets transmitted, count"
scalar XHost_SpineLeaf_Network.spine[0].eth[8].mac txPk:sum(packetBytes) 43388
attr interpolationmode none
attr source packetSentToLower
attr title "packets transmitted, sum(packetBytes)"
scalar XHost_SpineLeaf_Network.spine[0].eth[8].mac packetReceivedFromUpper:count 135
attr interpolationmode none
attr source packetReceivedFromUpper
attr title "packet bytes from higher layer, count"
scalar XHost_SpineLeaf_Network.spine[0].eth[8].mac packetReceivedFromUpper:sum(packetBytes) 42962
attr interpolationmode none
attr source packetReceivedFromUpper
attr title "packet bytes from higher layer, sum(packetBytes)"
scalar XHost_SpineLeaf_Network.spine[0].eth[8].mac passedUpPk:count 144
attr interpolationmode none
attr source packetSentToUpper
attr title "packets passed to higher layer, count"
scalar XHost_SpineLeaf_Network.spine[0].eth[8].mac passedUpPk:sum(packetBytes) 51616
attr interpolationmode none
attr source packetSentToUpper
attr title "packets passed to higher layer, sum(packetBytes)"
scalar XHost_SpineLeaf_Network.spine[0].eth[8].mac packetDropIncorrectlyReceived:count 0
attr interpolationmode none
attr source packetDropReasonIsIncorrectlyReceived(packetDropped)
attr title "packet drop: incorrectly received, count"
scalar XHost_SpineLeaf_Network.spine[0].eth[8].mac packetDropIncorrectlyReceived:sum(packetBytes) 0
attr interpolationmode none
attr source packetDropReasonIsIncorrectlyReceived(packetDropped)
attr title "packet drop: incorrectly received, sum(packetBytes)"
scalar XHost_SpineLeaf_Network.spine[0].eth[8].mac packetDropInterfaceDown:count 0
attr interpolationmode none
attr source packetDropReasonIsInterfaceDown(packetDropped)
attr title "packet drop: interface down, count"
scalar XHost_SpineLeaf_Network.spine[0].eth[8].mac packetDropInterfaceDown:sum(packetBytes) 0
attr interpolationmode none
attr source packetDropReasonIsInterfaceDown(packetDropped)
attr title "packet drop: interface down, sum(packetBytes)"
scalar XHost_SpineLeaf_Network.spine[0].eth[8].mac packetDropNotAddressedToUs:count 0
attr interpolationmode none
attr source packetDropReasonIsNotAddressedToUs(packetDropped)
attr title "packet drop: not addressed to us, count"
scalar XHost_SpineLeaf_Network.spine[0].eth[8].mac packetDropNotAddressedToUs:sum(packetBytes) 0
attr interpolationmode none
attr source packetDropReasonIsNotAddressedToUs(packetDropped)
attr title "packet drop: not addressed to us, sum(packetBytes)"
scalar XHost_SpineLeaf_Network.spine[0].eth[8].mac rxPausePkUnits:count 0
attr interpolationmode none
attr title "pause units received, count"
scalar XHost_SpineLeaf_Network.spine[0].eth[8].mac rxPausePkUnits:sum 0
attr interpolationmode none
attr title "pause units received, sum"
scalar XHost_SpineLeaf_Network.spine[0].eth[8].mac txPausePkUnits:count 0
attr interpolationmode none
attr title "pause units sent, count"
scalar XHost_SpineLeaf_Network.spine[0].eth[8].mac txPausePkUnits:sum 0
attr interpolationmode none
attr title "pause units sent, sum"
scalar XHost_SpineLeaf_Network.spine[0].eth[8].mac rxPkOk:count 144
attr interpolationmode none
attr source rxPkOk
attr title "packets received OK, count"
scalar XHost_SpineLeaf_Network.spine[0].eth[8].mac rxPkOk:sum(packetBytes) 51616
attr interpolationmode none
attr source rxPkOk
attr title "packets received OK, sum(packetBytes)"
scalar XHost_SpineLeaf_Network.spine[0].eth[8].encap pauseSent:count 0
attr title "pause sent, count"
scalar XHost_SpineLeaf_Network.spine[0].eth[8].encap pauseSent:sum 0
attr title "pause sent, sum"
scalar XHost_SpineLeaf_Network.spine[0].eth[8].encap decapPk:count 144
attr interpolationmode none
attr source decapPk
attr title "packets decapsulated, count"
scalar XHost_SpineLeaf_Network.spine[0].eth[8].encap decapPk:sum(packetBytes) 49024
attr interpolationmode none
attr source decapPk
attr title "packets decapsulated, sum(packetBytes)"
scalar XHost_SpineLeaf_Network.spine[0].eth[8].encap encapPk:count 135
attr interpolationmode none
attr source encapPk
attr title "packets encapsulated, count"
scalar XHost_SpineLeaf_Network.spine[0].eth[8].encap encapPk:sum(packetBytes) 40532
attr interpolationmode none
attr source encapPk
attr title "packets encapsulated, sum(packetBytes)"
scalar XHost_SpineLeaf_Network.spine[0].ipv4.ip packetDropAddressResolutionFailed:count 0
attr interpolationmode none
attr source packetDropReasonIsAddressResolutionFailed(packetDropped)
attr title "packet drop: address resolution failed, count"
scalar XHost_SpineLeaf_Network.spine[0].ipv4.ip packetDropAddressResolutionFailed:sum(packetBytes) 0
attr interpolationmode none
attr source packetDropReasonIsAddressResolutionFailed(packetDropped)
attr title "packet drop: address resolution failed, sum(packetBytes)"
scalar XHost_SpineLeaf_Network.spine[0].ipv4.ip packetDropHopLimitReached:count 0
attr interpolationmode none
attr source packetDropReasonIsHopLimitReached(packetDropped)
attr title "packet drop: hop limit reached, count"
scalar XHost_SpineLeaf_Network.spine[0].ipv4.ip packetDropHopLimitReached:sum(packetBytes) 0
attr interpolationmode none
attr source packetDropReasonIsHopLimitReached(packetDropped)
attr title "packet drop: hop limit reached, sum(packetBytes)"
scalar XHost_SpineLeaf_Network.spine[0].ipv4.ip packetDropForwardingDisabled:count 0
attr interpolationmode none
attr source packetDropReasonIsForwardingDisabled(packetDropped)
attr title "packet drop: forwarding disabled, count"
scalar XHost_SpineLeaf_Network.spine[0].ipv4.ip packetDropForwardingDisabled:sum(packetBytes) 0
attr interpolationmode none
attr source packetDropReasonIsForwardingDisabled(packetDropped)
attr title "packet drop: forwarding disabled, sum(packetBytes)"
scalar XHost_SpineLeaf_Network.spine[0].ipv4.ip packetDropNoInterfaceFound:count 0
attr interpolationmode none
attr source packetDropReasonIsNoInterfaceFound(packetDropped)
attr title "packet drop: no interface found, count"
scalar XHost_SpineLeaf_Network.spine[0].ipv4.ip packetDropNoInterfaceFound:sum(packetBytes) 0
attr interpolationmode none
attr source packetDropReasonIsNoInterfaceFound(packetDropped)
attr title "packet drop: no interface found, sum(packetBytes)"
scalar XHost_SpineLeaf_Network.spine[0].ipv4.ip packetDropNoRouteFound:count 0
attr interpolationmode none
attr source packetDropReasonIsNoRouteFound(packetDropped)
attr title "packet drop: no route found, count"
scalar XHost_SpineLeaf_Network.spine[0].ipv4.ip packetDropNoRouteFound:sum(packetBytes) 0
attr interpolationmode none
attr source packetDropReasonIsNoRouteFound(packetDropped)
attr title "packet drop: no route found, sum(packetBytes)"
scalar XHost_SpineLeaf_Network.spine[0].ipv4.ip packetDropUndefined:count 0
attr interpolationmode none
attr source packetDropReasonIsUndefined(packetDropped)
attr title "packet drop: undefined, count"
scalar XHost_SpineLeaf_Network.spine[0].ipv4.ip packetDropUndefined:sum(packetBytes) 0
attr interpolationmode none
attr source packetDropReasonIsUndefined(packetDropped)
attr title "packet drop: undefined, sum(packetBytes)"
scalar XHost_SpineLeaf_Network.spine[0].ipv4.arp arpReplySent:count 24
attr source arpReplySent
attr title "ARP replies sent, count"
scalar XHost_SpineLeaf_Network.spine[0].ipv4.arp arpReplySent:sum(packetBytes) 672
attr source arpReplySent
attr title "ARP replies sent, sum(packetBytes)"
scalar XHost_SpineLeaf_Network.spine[0].ipv4.arp arpRequestSent:count 4
attr source arpRequestSent
attr title "ARP request sent, count"
scalar XHost_SpineLeaf_Network.spine[0].ipv4.arp arpRequestSent:sum(packetBytes) 112
attr source arpRequestSent
attr title "ARP request sent, sum(packetBytes)"
scalar XHost_SpineLeaf_Network.spine[0].ipv4.arp arpResolutionFailed:count 0
attr title "ARP failed resolutions, count"
scalar XHost_SpineLeaf_Network.spine[0].ipv4.arp arpResolutionCompleted:count 28
attr title "ARP completed resolutions, count"
scalar XHost_SpineLeaf_Network.spine[0].ipv4.arp arpResolutionInitiated:count 4
attr title "ARP initiated resolutions, count"
scalar XHost_SpineLeaf_Network.spine[1].lo[0].lo rcvdPkFromHl:count 0
attr interpolationmode none
attr source packetReceivedFromUpper
attr title "packets received from higher layer, count"
scalar XHost_SpineLeaf_Network.spine[1].lo[0].lo rcvdPkFromHl:sum(packetBytes) 0
attr interpolationmode none
attr source packetReceivedFromUpper
attr title "packets received from higher layer, sum(packetBytes)"
scalar XHost_SpineLeaf_Network.spine[1].lo[0].lo passedUpPk:count 0
attr interpolationmode none
attr source packetSentToUpper
attr title "packets passed to higher layer, count"
scalar XHost_SpineLeaf_Network.spine[1].lo[0].lo passedUpPk:sum(packetBytes) 0
attr interpolationmode none
attr source packetSentToUpper
attr title "packets passed to higher layer, sum(packetBytes)"
scalar XHost_SpineLeaf_Network.spine[1].eth[0].mac.queue packetPopped:count 1241
attr interpolationmode none
[...]
scalar XHost_SpineLeaf_Network.borderLeaf.eth[4].mac.queue packetPopped:sum(packetBytes) 417976
attr interpolationmode none
attr title "packet popped, sum(packetBytes)"
statistic XHost_SpineLeaf_Network.borderLeaf.eth[4].mac.queue queueingTime:histogram
field count 1270
field mean 9.9955905511811e-007
field stddev 6.2308155970775e-006
field min 0
field max 4.24e-005
field sum 0.00126944
field sqrsum 5.05353472e-008
attr interpolationmode none
attr source queueingTime(packetPopped)
attr title "queueing times, histogram"
attr unit s
bin	-inf	0
bin	-0.5	0
bin	-0.48	0
bin	-0.46	0
bin	-0.44	0
bin	-0.42	0
bin	-0.4	0
bin	-0.38	0
bin	-0.36	0
bin	-0.34	0
bin	-0.32	0
bin	-0.3	0
bin	-0.28	0
bin	-0.26	0
bin	-0.24	0
bin	-0.22	0
bin	-0.2	0
bin	-0.18	0
bin	-0.16	0
bin	-0.14	0
bin	-0.12	0
bin	-0.1	0
bin	-0.08	0
bin	-0.06	0
bin	-0.04	0
bin	-0.02	0
bin	0	1270
bin	0.02	0
bin	0.04	0
bin	0.06	0
bin	0.08	0
bin	0.1	0
bin	0.12	0
bin	0.14	0
bin	0.16	0
bin	0.18	0
bin	0.2	0
bin	0.22	0
bin	0.24	0
bin	0.26	0
bin	0.28	0
bin	0.3	0
bin	0.32	0
bin	0.34	0
bin	0.36	0
bin	0.38	0
bin	0.4	0
bin	0.42	0
bin	0.44	0
bin	0.46	0
bin	0.48	0
bin	0.5	0
scalar XHost_SpineLeaf_Network.borderLeaf.eth[4].mac.queue queueLength:max 2
attr interpolationmode sample-hold
attr source "count(packetPushed) - count(packetPopped) - count(packetRemoved) - count(packetDropped)"
attr title "queue length, max"
scalar XHost_SpineLeaf_Network.borderLeaf.eth[4].mac.queue queueLength:timeavg 4.2217057850452e-006
attr interpolationmode sample-hold
attr source "count(packetPushed) - count(packetPopped) - count(packetRemoved) - count(packetDropped)"
attr title "queue length, timeavg"
scalar XHost_SpineLeaf_Network.borderLeaf.eth[4].mac.queue packetPushed:count 1273
attr interpolationmode none
attr title "packet pushed, count"
scalar XHost_SpineLeaf_Network.borderLeaf.eth[4].mac.queue packetPushed:sum(packetBytes) 418168
attr interpolationmode none
attr title "packet pushed, sum(packetBytes)"
scalar XHost_SpineLeaf_Network.borderLeaf.eth[4].mac.queue packetDropQueueOverflow:count 3
attr interpolationmode none
attr source packetDropReasonIsQueueOverflow(packetDropped)
attr title "packet drops: queue overflow, count"
scalar XHost_SpineLeaf_Network.borderLeaf.eth[4].mac.queue packetDropQueueOverflow:sum(packetBytes) 192
attr interpolationmode none
attr source packetDropReasonIsQueueOverflow(packetDropped)
attr title "packet drops: queue overflow, sum(packetBytes)"
scalar XHost_SpineLeaf_Network.borderLeaf.eth[4].mac.queue packetRemoved:count 0
attr interpolationmode none
attr title "packets removed, count"
scalar XHost_SpineLeaf_Network.borderLeaf.eth[4].mac.queue packetRemoved:sum(packetBytes) 0
attr interpolationmode none
attr title "packets removed, sum(packetBytes)"
scalar XHost_SpineLeaf_Network.borderLeaf.eth[4].mac "simulated time" 301.69369669536
scalar XHost_SpineLeaf_Network.borderLeaf.eth[4].mac full-duplex 1
scalar XHost_SpineLeaf_Network.borderLeaf.eth[4].mac "frames/sec sent" 4.2095675644241
scalar XHost_SpineLeaf_Network.borderLeaf.eth[4].mac "frames/sec rcvd" 3.9642856748435
scalar XHost_SpineLeaf_Network.borderLeaf.eth[4].mac "bits/sec sent" 11083.453305876
scalar XHost_SpineLeaf_Network.borderLeaf.eth[4].mac "bits/sec rcvd" 10494.750253921
scalar XHost_SpineLeaf_Network.borderLeaf.eth[4].mac "rx channel idle (%)" 100
scalar XHost_SpineLeaf_Network.borderLeaf.eth[4].mac "rx channel utilization (%)" 0
scalar XHost_SpineLeaf_Network.borderLeaf.eth[4].mac txPk:count 1270
attr interpolationmode none
attr source packetSentToLower
attr title "packets transmitted, count"
scalar XHost_SpineLeaf_Network.borderLeaf.eth[4].mac txPk:sum(packetBytes) 417976
attr interpolationmode none
attr source packetSentToLower
attr title "packets transmitted, sum(packetBytes)"
scalar XHost_SpineLeaf_Network.borderLeaf.eth[4].mac packetReceivedFromUpper:count 1273
attr interpolationmode none
attr source packetReceivedFromUpper
attr title "packet bytes from higher layer, count"
scalar XHost_SpineLeaf_Network.borderLeaf.eth[4].mac packetReceivedFromUpper:sum(packetBytes) 414194
attr interpolationmode none
attr source packetReceivedFromUpper
attr title "packet bytes from higher layer, sum(packetBytes)"
scalar XHost_SpineLeaf_Network.borderLeaf.eth[4].mac passedUpPk:count 1196
attr interpolationmode none
attr source packetSentToUpper
attr title "packets passed to higher layer, count"
scalar XHost_SpineLeaf_Network.borderLeaf.eth[4].mac passedUpPk:sum(packetBytes) 395775
attr interpolationmode none
attr source packetSentToUpper
attr title "packets passed to higher layer, sum(packetBytes)"
scalar XHost_SpineLeaf_Network.borderLeaf.eth[4].mac packetDropIncorrectlyReceived:count 0
attr interpolationmode none
attr source packetDropReasonIsIncorrectlyReceived(packetDropped)
attr title "packet drop: incorrectly received, count"
scalar XHost_SpineLeaf_Network.borderLeaf.eth[4].mac packetDropIncorrectlyReceived:sum(packetBytes) 0
attr interpolationmode none
attr source packetDropReasonIsIncorrectlyReceived(packetDropped)
attr title "packet drop: incorrectly received, sum(packetBytes)"
scalar XHost_SpineLeaf_Network.borderLeaf.eth[4].mac packetDropInterfaceDown:count 0
attr interpolationmode none
attr source packetDropReasonIsInterfaceDown(packetDropped)
attr title "packet drop: interface down, count"
scalar XHost_SpineLeaf_Network.borderLeaf.eth[4].mac packetDropInterfaceDown:sum(packetBytes) 0
attr interpolationmode none
attr source packetDropReasonIsInterfaceDown(packetDropped)
attr title "packet drop: interface down, sum(packetBytes)"
scalar XHost_SpineLeaf_Network.borderLeaf.eth[4].mac packetDropNotAddressedToUs:count 0
attr interpolationmode none
attr source packetDropReasonIsNotAddressedToUs(packetDropped)
attr title "packet drop: not addressed to us, count"
scalar XHost_SpineLeaf_Network.borderLeaf.eth[4].mac packetDropNotAddressedToUs:sum(packetBytes) 0
attr interpolationmode none
attr source packetDropReasonIsNotAddressedToUs(packetDropped)
attr title "packet drop: not addressed to us, sum(packetBytes)"
scalar XHost_SpineLeaf_Network.borderLeaf.eth[4].mac rxPausePkUnits:count 0
attr interpolationmode none
attr title "pause units received, count"
scalar XHost_SpineLeaf_Network.borderLeaf.eth[4].mac rxPausePkUnits:sum 0
attr interpolationmode none
attr title "pause units received, sum"
scalar XHost_SpineLeaf_Network.borderLeaf.eth[4].mac txPausePkUnits:count 0
attr interpolationmode none
attr title "pause units sent, count"
scalar XHost_SpineLeaf_Network.borderLeaf.eth[4].mac txPausePkUnits:sum 0
attr interpolationmode none
attr title "pause units sent, sum"
scalar XHost_SpineLeaf_Network.borderLeaf.eth[4].mac rxPkOk:count 1196
attr interpolationmode none
attr source rxPkOk
attr title "packets received OK, count"
scalar XHost_SpineLeaf_Network.borderLeaf.eth[4].mac rxPkOk:sum(packetBytes) 395775
attr interpolationmode none
attr source rxPkOk
attr title "packets received OK, sum(packetBytes)"
scalar XHost_SpineLeaf_Network.borderLeaf.eth[4].encap pauseSent:count 0
attr title "pause sent, count"
scalar XHost_SpineLeaf_Network.borderLeaf.eth[4].encap pauseSent:sum 0
attr title "pause sent, sum"
scalar XHost_SpineLeaf_Network.borderLeaf.eth[4].encap decapPk:count 1196
attr interpolationmode none
attr source decapPk
attr title "packets decapsulated, count"
scalar XHost_SpineLeaf_Network.borderLeaf.eth[4].encap decapPk:sum(packetBytes) 374247
attr interpolationmode none
attr source decapPk
attr title "packets decapsulated, sum(packetBytes)"
scalar XHost_SpineLeaf_Network.borderLeaf.eth[4].encap encapPk:count 1273
attr interpolationmode none
attr source encapPk
attr title "packets encapsulated, count"
scalar XHost_SpineLeaf_Network.borderLeaf.eth[4].encap encapPk:sum(packetBytes) 391280
attr interpolationmode none
attr source encapPk
attr title "packets encapsulated, sum(packetBytes)"
scalar XHost_SpineLeaf_Network.borderLeaf.eth[5].mac.queue packetPopped:count 5873
attr interpolationmode none
attr title "packet popped, count"
scalar XHost_SpineLeaf_Network.borderLeaf.eth[5].mac.queue packetPopped:sum(packetBytes) 1972604
attr interpolationmode none
attr title "packet popped, sum(packetBytes)"
statistic XHost_SpineLeaf_Network.borderLeaf.eth[5].mac.queue queueingTime:histogram
field count 5873
field mean 7.0790914324878e-006
field stddev 1.4876954968766e-005
field min 0
field max 4.912e-005
field sum 0.041575503983001
field sqrsum 1.5939300838934e-006
attr interpolationmode none
attr source queueingTime(packetPopped)
attr title "queueing times, histogram"
attr unit s
bin	-inf	0
bin	0	4327
bin	1e-006	9
bin	2e-006	3
bin	3e-006	1
bin	4e-006	3
bin	5e-006	4
bin	6e-006	447
bin	7e-006	1
bin	8e-006	0
bin	9e-006	10
bin	1e-005	0
bin	1.1e-005	25
bin	1.2e-005	0
bin	1.3e-005	5
bin	1.4e-005	5
bin	1.5e-005	7
bin	1.6e-005	164
bin	1.7e-005	1
bin	1.8e-005	1
bin	1.9e-005	4
bin	2e-005	3
bin	2.1e-005	0
bin	2.2e-005	116
bin	2.3e-005	14
bin	2.4e-005	9
bin	2.5e-005	7
bin	2.6e-005	6
bin	2.7e-005	1
bin	2.8e-005	24
bin	2.9e-005	10
bin	3e-005	4
bin	3.1e-005	1
bin	3.2e-005	0
bin	3.3e-005	2
bin	3.4e-005	0
bin	3.5e-005	4
bin	3.6e-005	6
bin	3.7e-005	4
bin	3.8e-005	5
bin	3.9e-005	1
bin	4e-005	0
bin	4.1e-005	0
bin	4.2e-005	268
bin	4.3e-005	0
bin	4.4e-005	1
bin	4.5e-005	4
bin	4.6e-005	2
bin	4.7e-005	2
bin	4.8e-005	2
bin	4.9e-005	360
bin	5e-005	0
bin	5.1e-005	0
bin	5.2e-005	0
bin	5.3e-005	0
bin	5.4e-005	0
bin	5.5e-005	0
bin	5.6e-005	0
bin	5.7e-005	0
bin	5.8e-005	0
bin	5.9e-005	0
bin	6e-005	0
bin	6.1e-005	0
bin	6.2e-005	0
scalar XHost_SpineLeaf_Network.borderLeaf.eth[5].mac.queue queueLength:max 2
attr interpolationmode sample-hold
attr source "count(packetPushed) - count(packetPopped) - count(packetRemoved) - count(packetDropped)"
attr title "queue length, max"
scalar XHost_SpineLeaf_Network.borderLeaf.eth[5].mac.queue queueLength:timeavg 0.00013826532338327
attr interpolationmode sample-hold
attr source "count(packetPushed) - count(packetPopped) - count(packetRemoved) - count(packetDropped)"
attr title "queue length, timeavg"
scalar XHost_SpineLeaf_Network.borderLeaf.eth[5].mac.queue packetPushed:count 6056
attr interpolationmode none
attr title "packet pushed, count"
scalar XHost_SpineLeaf_Network.borderLeaf.eth[5].mac.queue packetPushed:sum(packetBytes) 1999689
attr interpolationmode none
attr title "packet pushed, sum(packetBytes)"
scalar XHost_SpineLeaf_Network.borderLeaf.eth[5].mac.queue packetDropQueueOverflow:count 183
attr interpolationmode none
attr source packetDropReasonIsQueueOverflow(packetDropped)
attr title "packet drops: queue overflow, count"
scalar XHost_SpineLeaf_Network.borderLeaf.eth[5].mac.queue packetDropQueueOverflow:sum(packetBytes) 27085
attr interpolationmode none
attr source packetDropReasonIsQueueOverflow(packetDropped)
attr title "packet drops: queue overflow, sum(packetBytes)"
scalar XHost_SpineLeaf_Network.borderLeaf.eth[5].mac.queue packetRemoved:count 0
attr interpolationmode none
attr title "packets removed, count"
scalar XHost_SpineLeaf_Network.borderLeaf.eth[5].mac.queue packetRemoved:sum(packetBytes) 0
attr interpolationmode none
attr title "packets removed, sum(packetBytes)"
scalar XHost_SpineLeaf_Network.borderLeaf.eth[5].mac "simulated time" 301.69369669536
scalar XHost_SpineLeaf_Network.borderLeaf.eth[5].mac full-duplex 1
scalar XHost_SpineLeaf_Network.borderLeaf.eth[5].mac "frames/sec sent" 19.466764020364
scalar XHost_SpineLeaf_Network.borderLeaf.eth[5].mac "frames/sec rcvd" 20.30204829299
scalar XHost_SpineLeaf_Network.borderLeaf.eth[5].mac "bits/sec sent" 52307.46340695
scalar XHost_SpineLeaf_Network.borderLeaf.eth[5].mac "bits/sec rcvd" 53187.534826765
scalar XHost_SpineLeaf_Network.borderLeaf.eth[5].mac "rx channel idle (%)" 100
scalar XHost_SpineLeaf_Network.borderLeaf.eth[5].mac "rx channel utilization (%)" 0
scalar XHost_SpineLeaf_Network.borderLeaf.eth[5].mac txPk:count 5873
attr interpolationmode none
attr source packetSentToLower
attr title "packets transmitted, count"
scalar XHost_SpineLeaf_Network.borderLeaf.eth[5].mac txPk:sum(packetBytes) 1972604
attr interpolationmode none
attr source packetSentToLower
attr title "packets transmitted, sum(packetBytes)"
scalar XHost_SpineLeaf_Network.borderLeaf.eth[5].mac packetReceivedFromUpper:count 6056
attr interpolationmode none
attr source packetReceivedFromUpper
attr title "packet bytes from higher layer, count"
scalar XHost_SpineLeaf_Network.borderLeaf.eth[5].mac packetReceivedFromUpper:sum(packetBytes) 1981939
attr interpolationmode none
attr source packetReceivedFromUpper
attr title "packet bytes from higher layer, sum(packetBytes)"
scalar XHost_SpineLeaf_Network.borderLeaf.eth[5].mac passedUpPk:count 6125
attr interpolationmode none
attr source packetSentToUpper
attr title "packets passed to higher layer, count"
scalar XHost_SpineLeaf_Network.borderLeaf.eth[5].mac passedUpPk:sum(packetBytes) 2005793
attr interpolationmode none
attr source packetSentToUpper
attr title "packets passed to higher layer, sum(packetBytes)"
scalar XHost_SpineLeaf_Network.borderLeaf.eth[5].mac packetDropIncorrectlyReceived:count 0
attr interpolationmode none
attr source packetDropReasonIsIncorrectlyReceived(packetDropped)
attr title "packet drop: incorrectly received, count"
scalar XHost_SpineLeaf_Network.borderLeaf.eth[5].mac packetDropIncorrectlyReceived:sum(packetBytes) 0
attr interpolationmode none
attr source packetDropReasonIsIncorrectlyReceived(packetDropped)
attr title "packet drop: incorrectly received, sum(packetBytes)"
scalar XHost_SpineLeaf_Network.borderLeaf.eth[5].mac packetDropInterfaceDown:count 0
attr interpolationmode none
attr source packetDropReasonIsInterfaceDown(packetDropped)
attr title "packet drop: interface down, count"
scalar XHost_SpineLeaf_Network.borderLeaf.eth[5].mac packetDropInterfaceDown:sum(packetBytes) 0
attr interpolationmode none
attr source packetDropReasonIsInterfaceDown(packetDropped)
attr title "packet drop: interface down, sum(packetBytes)"
scalar XHost_SpineLeaf_Network.borderLeaf.eth[5].mac packetDropNotAddressedToUs:count 0
attr interpolationmode none
attr source packetDropReasonIsNotAddressedToUs(packetDropped)
attr title "packet drop: not addressed to us, count"
scalar XHost_SpineLeaf_Network.borderLeaf.eth[5].mac packetDropNotAddressedToUs:sum(packetBytes) 0
attr interpolationmode none
attr source packetDropReasonIsNotAddressedToUs(packetDropped)
attr title "packet drop: not addressed to us, sum(packetBytes)"
scalar XHost_SpineLeaf_Network.borderLeaf.eth[5].mac rxPausePkUnits:count 0
attr interpolationmode none
attr title "pause units received, count"
scalar XHost_SpineLeaf_Network.borderLeaf.eth[5].mac rxPausePkUnits:sum 0
attr interpolationmode none
attr title "pause units received, sum"
scalar XHost_SpineLeaf_Network.borderLeaf.eth[5].mac txPausePkUnits:count 0
attr interpolationmode none
attr title "pause units sent, count"
scalar XHost_SpineLeaf_Network.borderLeaf.eth[5].mac txPausePkUnits:sum 0
attr interpolationmode none
attr title "pause units sent, sum"
scalar XHost_SpineLeaf_Network.borderLeaf.eth[5].mac rxPkOk:count 6125
attr interpolationmode none
attr source rxPkOk
attr title "packets received OK, count"
scalar XHost_SpineLeaf_Network.borderLeaf.eth[5].mac rxPkOk:sum(packetBytes) 2005793
attr interpolationmode none
attr source rxPkOk
attr title "packets received OK, sum(packetBytes)"
scalar XHost_SpineLeaf_Network.borderLeaf.eth[5].encap pauseSent:count 0
attr title "pause sent, count"
scalar XHost_SpineLeaf_Network.borderLeaf.eth[5].encap pauseSent:sum 0
attr title "pause sent, sum"
scalar XHost_SpineLeaf_Network.borderLeaf.eth[5].encap decapPk:count 6125
attr interpolationmode none
attr source decapPk
attr title "packets decapsulated, count"
scalar XHost_SpineLeaf_Network.borderLeaf.eth[5].encap decapPk:sum(packetBytes) 1895543
attr interpolationmode none
attr source decapPk
attr title "packets decapsulated, sum(packetBytes)"
scalar XHost_SpineLeaf_Network.borderLeaf.eth[5].encap encapPk:count 6056
attr interpolationmode none
attr source encapPk
attr title "packets encapsulated, count"
scalar XHost_SpineLeaf_Network.borderLeaf.eth[5].encap encapPk:sum(packetBytes) 1872931
attr interpolationmode none
attr source encapPk
attr title "packets encapsulated, sum(packetBytes)"
scalar XHost_SpineLeaf_Network.borderLeaf.ipv4.ip packetDropAddressResolutionFailed:count 0
attr interpolationmode none
attr source packetDropReasonIsAddressResolutionFailed(packetDropped)
attr title "packet drop: address resolution failed, count"
scalar XHost_SpineLeaf_Network.borderLeaf.ipv4.ip packetDropAddressResolutionFailed:sum(packetBytes) 0
attr interpolationmode none
attr source packetDropReasonIsAddressResolutionFailed(packetDropped)
attr title "packet drop: address resolution failed, sum(packetBytes)"
scalar XHost_SpineLeaf_Network.borderLeaf.ipv4.ip packetDropHopLimitReached:count 0
attr interpolationmode none
attr source packetDropReasonIsHopLimitReached(packetDropped)
attr title "packet drop: hop limit reached, count"
scalar XHost_SpineLeaf_Network.borderLeaf.ipv4.ip packetDropHopLimitReached:sum(packetBytes) 0
attr interpolationmode none
attr source packetDropReasonIsHopLimitReached(packetDropped)
attr title "packet drop: hop limit reached, sum(packetBytes)"
scalar XHost_SpineLeaf_Network.borderLeaf.ipv4.ip packetDropForwardingDisabled:count 0
attr interpolationmode none
attr source packetDropReasonIsForwardingDisabled(packetDropped)
attr title "packet drop: forwarding disabled, count"
scalar XHost_SpineLeaf_Network.borderLeaf.ipv4.ip packetDropForwardingDisabled:sum(packetBytes) 0
attr interpolationmode none
attr source packetDropReasonIsForwardingDisabled(packetDropped)
attr title "packet drop: forwarding disabled, sum(packetBytes)"
scalar XHost_SpineLeaf_Network.borderLeaf.ipv4.ip packetDropNoInterfaceFound:count 0
attr interpolationmode none
attr source packetDropReasonIsNoInterfaceFound(packetDropped)
attr title "packet drop: no interface found, count"
scalar XHost_SpineLeaf_Network.borderLeaf.ipv4.ip packetDropNoInterfaceFound:sum(packetBytes) 0
attr interpolationmode none
attr source packetDropReasonIsNoInterfaceFound(packetDropped)
attr title "packet drop: no interface found, sum(packetBytes)"
scalar XHost_SpineLeaf_Network.borderLeaf.ipv4.ip packetDropNoRouteFound:count 0
attr interpolationmode none
attr source packetDropReasonIsNoRouteFound(packetDropped)
attr title "packet drop: no route found, count"
scalar XHost_SpineLeaf_Network.borderLeaf.ipv4.ip packetDropNoRouteFound:sum(packetBytes) 0
attr interpolationmode none
attr source packetDropReasonIsNoRouteFound(packetDropped)
attr title "packet drop: no route found, sum(packetBytes)"
scalar XHost_SpineLeaf_Network.borderLeaf.ipv4.ip packetDropUndefined:count 0
attr interpolationmode none
attr source packetDropReasonIsUndefined(packetDropped)
attr title "packet drop: undefined, count"
scalar XHost_SpineLeaf_Network.borderLeaf.ipv4.ip packetDropUndefined:sum(packetBytes) 0
attr interpolationmode none
attr source packetDropReasonIsUndefined(packetDropped)
attr title "packet drop: undefined, sum(packetBytes)"
scalar XHost_SpineLeaf_Network.borderLeaf.ipv4.arp arpReplySent:count 4
attr source arpReplySent
attr title "ARP replies sent, count"
scalar XHost_SpineLeaf_Network.borderLeaf.ipv4.arp arpReplySent:sum(packetBytes) 112
attr source arpReplySent
attr title "ARP replies sent, sum(packetBytes)"
scalar XHost_SpineLeaf_Network.borderLeaf.ipv4.arp arpRequestSent:count 81
attr source arpRequestSent
attr title "ARP request sent, count"
scalar XHost_SpineLeaf_Network.borderLeaf.ipv4.arp arpRequestSent:sum(packetBytes) 2268
attr source arpRequestSent
attr title "ARP request sent, sum(packetBytes)"
scalar XHost_SpineLeaf_Network.borderLeaf.ipv4.arp arpResolutionFailed:count 0
attr title "ARP failed resolutions, count"
scalar XHost_SpineLeaf_Network.borderLeaf.ipv4.arp arpResolutionCompleted:count 85
attr title "ARP completed resolutions, count"
scalar XHost_SpineLeaf_Network.borderLeaf.ipv4.arp arpResolutionInitiated:count 81
attr title "ARP initiated resolutions, count"

