file 637712 1612370610                                          
version 2
run Traffic_1-0-20210203-11:35:14-13948
attr configname Traffic_1
attr datetime 20210203-11:35:14
attr experiment Traffic_1
attr inifile XHost_SpineLeaf.ini
attr iterationvars ""
attr iterationvarsf ""
attr measurement ""
attr network XHost_SpineLeaf_Network
attr processid 13948
attr repetition 0
attr replication #0
attr resultdir results
attr runnumber 0
attr seedset 0
param **.borderLeaf.**.packetCapacity 1
param **.leaf[*].**.packetCapacity 1
param **.spine[*].**.packetCapacity 1
param **.H[*].numApps 1
param **.border.numApps 1
param **.H[*].app[0].typename "\"TcpSessionApp\""
param **.H[*].app[0].connectAddress "\"border\""
param **.H[*].app[0].tOpen 1.0s
param **.H[*].app[0].tSend 1.1s
param **.H[*].app[0].sendBytes 100000B
param **.H[*].app[0].tClose 0s
param **.border.app[0].typename "\"TcpEchoApp\""
param **.LanVisualizer.interfaceTableVisualizer.displayInterfaceTables true
param **.LanVisualizer.interfaceTableVisualizer.displayWiredInterfacesAtConnections false
param **.LanVisualizer.interfaceTableVisualizer.nodeFilter "\"not (*topOfRack or *H*)\""
param **.LanVisualizer.interfaceTableVisualizer.placementPriority 2
param **.LanVisualizer.interfaceTableVisualizer.format "\"%N %\\\\%n/%l%\\\\%m\""
param **.LanVisualizer.packetDropVisualizer.displayPacketDrops true
param **.LanVisualizer.packetDropVisualizer.labelFormat "\"%n/reason: %r\""
param **.LanVisualizer.packetDropVisualizer.fadeOutTime 10s
param **.LeafVisualizer.interfaceTableVisualizer.displayInterfaceTables true
param **.LeafVisualizer.interfaceTableVisualizer.displayWiredInterfacesAtConnections false
param **.LeafVisualizer.interfaceTableVisualizer.placementPriority 2
param **.LeafVisualizer.interfaceTableVisualizer.format "\"%N %\\\\%n/%l%\\\\%m\""
param **.configurator.config "xmldoc(\"XHost_SpineLeaf_Routing.xml\")"

vector 0 XHost_SpineLeaf_Network.leaf[0].H[0].tcp.conn-17 tcpRcvQueueBytes:vector ETV
attr interpolationmode sample-hold
vector 1 XHost_SpineLeaf_Network.leaf[0].H[0].tcp.conn-17 rcvAdv:vector ETV
attr interpolationmode sample-hold
vector 2 XHost_SpineLeaf_Network.leaf[0].H[0].tcp.conn-17 rcvWnd:vector ETV
attr interpolationmode sample-hold
vector 3 XHost_SpineLeaf_Network.leaf[0].H[0].tcp.conn-17 sndAck:vector ETV
attr interpolationmode sample-hold
vector 4 XHost_SpineLeaf_Network.leaf[0].H[1].tcp.conn-18 tcpRcvQueueBytes:vector ETV
attr interpolationmode sample-hold
vector 5 XHost_SpineLeaf_Network.leaf[0].H[1].tcp.conn-18 rcvAdv:vector ETV
attr interpolationmode sample-hold
vector 6 XHost_SpineLeaf_Network.leaf[0].H[1].tcp.conn-18 rcvWnd:vector ETV
attr interpolationmode sample-hold
vector 7 XHost_SpineLeaf_Network.leaf[0].H[1].tcp.conn-18 sndAck:vector ETV
attr interpolationmode sample-hold
vector 8 XHost_SpineLeaf_Network.leaf[1].H[0].tcp.conn-19 tcpRcvQueueBytes:vector ETV
attr interpolationmode sample-hold
vector 9 XHost_SpineLeaf_Network.leaf[1].H[0].tcp.conn-19 rcvAdv:vector ETV
attr interpolationmode sample-hold
vector 10 XHost_SpineLeaf_Network.leaf[1].H[0].tcp.conn-19 rcvWnd:vector ETV
attr interpolationmode sample-hold
vector 11 XHost_SpineLeaf_Network.leaf[1].H[0].tcp.conn-19 sndAck:vector ETV
attr interpolationmode sample-hold
vector 12 XHost_SpineLeaf_Network.leaf[1].H[1].tcp.conn-20 tcpRcvQueueBytes:vector ETV
attr interpolationmode sample-hold
vector 13 XHost_SpineLeaf_Network.leaf[1].H[1].tcp.conn-20 rcvAdv:vector ETV
attr interpolationmode sample-hold
vector 14 XHost_SpineLeaf_Network.leaf[1].H[1].tcp.conn-20 rcvWnd:vector ETV
attr interpolationmode sample-hold
vector 15 XHost_SpineLeaf_Network.leaf[1].H[1].tcp.conn-20 sndAck:vector ETV
attr interpolationmode sample-hold
vector 16 XHost_SpineLeaf_Network.leaf[2].H[0].tcp.conn-21 tcpRcvQueueBytes:vector ETV
attr interpolationmode sample-hold
vector 17 XHost_SpineLeaf_Network.leaf[2].H[0].tcp.conn-21 rcvAdv:vector ETV
attr interpolationmode sample-hold
vector 18 XHost_SpineLeaf_Network.leaf[2].H[0].tcp.conn-21 rcvWnd:vector ETV
attr interpolationmode sample-hold
vector 19 XHost_SpineLeaf_Network.leaf[2].H[0].tcp.conn-21 sndAck:vector ETV
attr interpolationmode sample-hold
vector 20 XHost_SpineLeaf_Network.leaf[2].H[1].tcp.conn-22 tcpRcvQueueBytes:vector ETV
attr interpolationmode sample-hold
vector 21 XHost_SpineLeaf_Network.leaf[2].H[1].tcp.conn-22 rcvAdv:vector ETV
attr interpolationmode sample-hold
vector 22 XHost_SpineLeaf_Network.leaf[2].H[1].tcp.conn-22 rcvWnd:vector ETV
attr interpolationmode sample-hold
vector 23 XHost_SpineLeaf_Network.leaf[2].H[1].tcp.conn-22 sndAck:vector ETV
attr interpolationmode sample-hold
vector 24 XHost_SpineLeaf_Network.leaf[3].H[0].tcp.conn-23 tcpRcvQueueBytes:vector ETV
attr interpolationmode sample-hold
vector 25 XHost_SpineLeaf_Network.leaf[3].H[0].tcp.conn-23 rcvAdv:vector ETV
attr interpolationmode sample-hold
vector 26 XHost_SpineLeaf_Network.leaf[3].H[0].tcp.conn-23 rcvWnd:vector ETV
attr interpolationmode sample-hold
vector 27 XHost_SpineLeaf_Network.leaf[3].H[0].tcp.conn-23 sndAck:vector ETV
attr interpolationmode sample-hold
vector 28 XHost_SpineLeaf_Network.leaf[3].H[1].tcp.conn-24 tcpRcvQueueBytes:vector ETV
attr interpolationmode sample-hold
vector 29 XHost_SpineLeaf_Network.leaf[3].H[1].tcp.conn-24 rcvAdv:vector ETV
attr interpolationmode sample-hold
vector 30 XHost_SpineLeaf_Network.leaf[3].H[1].tcp.conn-24 rcvWnd:vector ETV
attr interpolationmode sample-hold
vector 31 XHost_SpineLeaf_Network.leaf[3].H[1].tcp.conn-24 sndAck:vector ETV
attr interpolationmode sample-hold
vector 32 XHost_SpineLeaf_Network.leaf[4].H[0].tcp.conn-25 tcpRcvQueueBytes:vector ETV
attr interpolationmode sample-hold
vector 33 XHost_SpineLeaf_Network.leaf[4].H[0].tcp.conn-25 rcvAdv:vector ETV
attr interpolationmode sample-hold
vector 34 XHost_SpineLeaf_Network.leaf[4].H[0].tcp.conn-25 rcvWnd:vector ETV
attr interpolationmode sample-hold
vector 35 XHost_SpineLeaf_Network.leaf[4].H[0].tcp.conn-25 sndAck:vector ETV
attr interpolationmode sample-hold
vector 36 XHost_SpineLeaf_Network.leaf[4].H[1].tcp.conn-26 tcpRcvQueueBytes:vector ETV
attr interpolationmode sample-hold
vector 37 XHost_SpineLeaf_Network.leaf[4].H[1].tcp.conn-26 rcvAdv:vector ETV
attr interpolationmode sample-hold
vector 38 XHost_SpineLeaf_Network.leaf[4].H[1].tcp.conn-26 rcvWnd:vector ETV
attr interpolationmode sample-hold
vector 39 XHost_SpineLeaf_Network.leaf[4].H[1].tcp.conn-26 sndAck:vector ETV
attr interpolationmode sample-hold
vector 40 XHost_SpineLeaf_Network.leaf[5].H[0].tcp.conn-27 tcpRcvQueueBytes:vector ETV
attr interpolationmode sample-hold
vector 41 XHost_SpineLeaf_Network.leaf[5].H[0].tcp.conn-27 rcvAdv:vector ETV
attr interpolationmode sample-hold
vector 42 XHost_SpineLeaf_Network.leaf[5].H[0].tcp.conn-27 rcvWnd:vector ETV
attr interpolationmode sample-hold
vector 43 XHost_SpineLeaf_Network.leaf[5].H[0].tcp.conn-27 sndAck:vector ETV
attr interpolationmode sample-hold
vector 44 XHost_SpineLeaf_Network.leaf[5].H[1].tcp.conn-28 tcpRcvQueueBytes:vector ETV
attr interpolationmode sample-hold
vector 45 XHost_SpineLeaf_Network.leaf[5].H[1].tcp.conn-28 rcvAdv:vector ETV
attr interpolationmode sample-hold
vector 46 XHost_SpineLeaf_Network.leaf[5].H[1].tcp.conn-28 rcvWnd:vector ETV
attr interpolationmode sample-hold
vector 47 XHost_SpineLeaf_Network.leaf[5].H[1].tcp.conn-28 sndAck:vector ETV
attr interpolationmode sample-hold
vector 48 XHost_SpineLeaf_Network.leaf[6].H[0].tcp.conn-29 tcpRcvQueueBytes:vector ETV
attr interpolationmode sample-hold
vector 49 XHost_SpineLeaf_Network.leaf[6].H[0].tcp.conn-29 rcvAdv:vector ETV
attr interpolationmode sample-hold
vector 50 XHost_SpineLeaf_Network.leaf[6].H[0].tcp.conn-29 rcvWnd:vector ETV
attr interpolationmode sample-hold
vector 51 XHost_SpineLeaf_Network.leaf[6].H[0].tcp.conn-29 sndAck:vector ETV
attr interpolationmode sample-hold
vector 52 XHost_SpineLeaf_Network.leaf[6].H[1].tcp.conn-30 tcpRcvQueueBytes:vector ETV
attr interpolationmode sample-hold
vector 53 XHost_SpineLeaf_Network.leaf[6].H[1].tcp.conn-30 rcvAdv:vector ETV
attr interpolationmode sample-hold
vector 54 XHost_SpineLeaf_Network.leaf[6].H[1].tcp.conn-30 rcvWnd:vector ETV
attr interpolationmode sample-hold
vector 55 XHost_SpineLeaf_Network.leaf[6].H[1].tcp.conn-30 sndAck:vector ETV
attr interpolationmode sample-hold
vector 56 XHost_SpineLeaf_Network.leaf[7].H[0].tcp.conn-31 tcpRcvQueueBytes:vector ETV
attr interpolationmode sample-hold
vector 57 XHost_SpineLeaf_Network.leaf[7].H[0].tcp.conn-31 rcvAdv:vector ETV
attr interpolationmode sample-hold
vector 58 XHost_SpineLeaf_Network.leaf[7].H[0].tcp.conn-31 rcvWnd:vector ETV
attr interpolationmode sample-hold
vector 59 XHost_SpineLeaf_Network.leaf[7].H[0].tcp.conn-31 sndAck:vector ETV
attr interpolationmode sample-hold
vector 60 XHost_SpineLeaf_Network.leaf[7].H[1].tcp.conn-32 tcpRcvQueueBytes:vector ETV
attr interpolationmode sample-hold
vector 61 XHost_SpineLeaf_Network.leaf[7].H[1].tcp.conn-32 rcvAdv:vector ETV
attr interpolationmode sample-hold
vector 62 XHost_SpineLeaf_Network.leaf[7].H[1].tcp.conn-32 rcvWnd:vector ETV
attr interpolationmode sample-hold
vector 63 XHost_SpineLeaf_Network.leaf[7].H[1].tcp.conn-32 sndAck:vector ETV
attr interpolationmode sample-hold
vector 64 XHost_SpineLeaf_Network.leaf[0].H[0].ipv4.arp arpRequestSent:vector(packetBytes) ETV
attr source arpRequestSent
attr title "ARP request sent, vector(packetBytes)"
vector 65 XHost_SpineLeaf_Network.leaf[0].H[1].ipv4.arp arpRequestSent:vector(packetBytes) ETV
attr source arpRequestSent
attr title "ARP request sent, vector(packetBytes)"
vector 66 XHost_SpineLeaf_Network.leaf[1].H[0].ipv4.arp arpRequestSent:vector(packetBytes) ETV
attr source arpRequestSent
attr title "ARP request sent, vector(packetBytes)"
vector 67 XHost_SpineLeaf_Network.leaf[1].H[1].ipv4.arp arpRequestSent:vector(packetBytes) ETV
attr source arpRequestSent
attr title "ARP request sent, vector(packetBytes)"
vector 68 XHost_SpineLeaf_Network.leaf[2].H[0].ipv4.arp arpRequestSent:vector(packetBytes) ETV
attr source arpRequestSent
attr title "ARP request sent, vector(packetBytes)"
vector 69 XHost_SpineLeaf_Network.leaf[2].H[1].ipv4.arp arpRequestSent:vector(packetBytes) ETV
attr source arpRequestSent
attr title "ARP request sent, vector(packetBytes)"
vector 70 XHost_SpineLeaf_Network.leaf[3].H[0].ipv4.arp arpRequestSent:vector(packetBytes) ETV
attr source arpRequestSent
attr title "ARP request sent, vector(packetBytes)"
vector 71 XHost_SpineLeaf_Network.leaf[3].H[1].ipv4.arp arpRequestSent:vector(packetBytes) ETV
attr source arpRequestSent
attr title "ARP request sent, vector(packetBytes)"
vector 72 XHost_SpineLeaf_Network.leaf[4].H[0].ipv4.arp arpRequestSent:vector(packetBytes) ETV
attr source arpRequestSent
attr title "ARP request sent, vector(packetBytes)"
vector 73 XHost_SpineLeaf_Network.leaf[4].H[1].ipv4.arp arpRequestSent:vector(packetBytes) ETV
attr source arpRequestSent
attr title "ARP request sent, vector(packetBytes)"
vector 74 XHost_SpineLeaf_Network.leaf[5].H[0].ipv4.arp arpRequestSent:vector(packetBytes) ETV
attr source arpRequestSent
attr title "ARP request sent, vector(packetBytes)"
vector 75 XHost_SpineLeaf_Network.leaf[5].H[1].ipv4.arp arpRequestSent:vector(packetBytes) ETV
attr source arpRequestSent
attr title "ARP request sent, vector(packetBytes)"
vector 76 XHost_SpineLeaf_Network.leaf[6].H[0].ipv4.arp arpRequestSent:vector(packetBytes) ETV
attr source arpRequestSent
attr title "ARP request sent, vector(packetBytes)"
vector 77 XHost_SpineLeaf_Network.leaf[6].H[1].ipv4.arp arpRequestSent:vector(packetBytes) ETV
attr source arpRequestSent
attr title "ARP request sent, vector(packetBytes)"
vector 78 XHost_SpineLeaf_Network.leaf[7].H[0].ipv4.arp arpRequestSent:vector(packetBytes) ETV
attr source arpRequestSent
attr title "ARP request sent, vector(packetBytes)"
vector 79 XHost_SpineLeaf_Network.leaf[7].H[1].ipv4.arp arpRequestSent:vector(packetBytes) ETV
attr source arpRequestSent
attr title "ARP request sent, vector(packetBytes)"
vector 80 XHost_SpineLeaf_Network.leaf[0].H[0].eth[0].encap encapPk:vector(packetBytes) ETV
attr interpolationmode none
attr source encapPk
attr title "packets encapsulated, vector(packetBytes)"
vector 81 XHost_SpineLeaf_Network.leaf[0].H[1].eth[0].encap encapPk:vector(packetBytes) ETV
attr interpolationmode none
attr source encapPk
attr title "packets encapsulated, vector(packetBytes)"
0	12533 10 18 18 1 1 1 0 0 0 0
1	12543 13 18 18 1 1 1 7504 7504 7504 56310016
2	12556 13 18 18 1 1 1 7504 7504 7504 56310016
3	12569 10 18 18 1 1 1 0 0 0 0
4	12579 10 19 19 1 1 1 0 0 0 0
5	12589 13 19 19 1 1 1 7504 7504 7504 56310016
6	12602 13 19 19 1 1 1 7504 7504 7504 56310016
7	12615 10 19 19 1 1 1 0 0 0 0
8	12625 10 20 20 1 1 1 0 0 0 0
9	12635 13 20 20 1 1 1 7504 7504 7504 56310016
10	12648 14 20 20 1 1 1 7504 7504 7504 56310016
11	12662 11 20 20 1 1 1 0 0 0 0
12	12673 11 21 21 1 1 1 0 0 0 0
13	12684 14 21 21 1 1 1 7504 7504 7504 56310016
14	12698 14 21 21 1 1 1 7504 7504 7504 56310016
15	12712 11 21 21 1 1 1 0 0 0 0
16	12723 11 22 22 1 1 1 0 0 0 0
17	12734 14 22 22 1 1 1 7504 7504 7504 56310016
18	12748 14 22 22 1 1 1 7504 7504 7504 56310016
19	12762 11 22 22 1 1 1 0 0 0 0
20	12773 11 23 23 1 1 1 0 0 0 0
21	12784 14 23 23 1 1 1 7504 7504 7504 56310016
22	12798 14 23 23 1 1 1 7504 7504 7504 56310016
23	12812 11 23 23 1 1 1 0 0 0 0
24	12823 11 24 24 1 1 1 0 0 0 0
25	12834 14 24 24 1 1 1 7504 7504 7504 56310016
26	12848 14 24 24 1 1 1 7504 7504 7504 56310016
27	12862 11 24 24 1 1 1 0 0 0 0
28	12873 11 25 25 1 1 1 0 0 0 0
29	12884 14 25 25 1 1 1 7504 7504 7504 56310016
30	12898 14 25 25 1 1 1 7504 7504 7504 56310016
31	12912 11 25 25 1 1 1 0 0 0 0
32	12923 11 26 26 1 1 1 0 0 0 0
33	12934 14 26 26 1 1 1 7504 7504 7504 56310016
34	12948 14 26 26 1 1 1 7504 7504 7504 56310016
35	12962 11 26 26 1 1 1 0 0 0 0
36	12973 11 27 27 1 1 1 0 0 0 0
37	12984 14 27 27 1 1 1 7504 7504 7504 56310016
38	12998 14 27 27 1 1 1 7504 7504 7504 56310016
39	13012 11 27 27 1 1 1 0 0 0 0
40	13023 11 28 28 1 1 1 0 0 0 0
41	13034 14 28 28 1 1 1 7504 7504 7504 56310016
42	13048 14 28 28 1 1 1 7504 7504 7504 56310016
43	13062 11 28 28 1 1 1 0 0 0 0
44	13073 11 29 29 1 1 1 0 0 0 0
45	13084 14 29 29 1 1 1 7504 7504 7504 56310016
46	13098 14 29 29 1 1 1 7504 7504 7504 56310016
47	13112 11 29 29 1 1 1 0 0 0 0
48	13123 11 30 30 1 1 1 0 0 0 0
49	13134 14 30 30 1 1 1 7504 7504 7504 56310016
50	13148 14 30 30 1 1 1 7504 7504 7504 56310016
51	13162 11 30 30 1 1 1 0 0 0 0
52	13173 11 31 31 1 1 1 0 0 0 0
53	13184 14 31 31 1 1 1 7504 7504 7504 56310016
54	13198 14 31 31 1 1 1 7504 7504 7504 56310016
55	13212 11 31 31 1 1 1 0 0 0 0
56	13223 11 32 32 1 1 1 0 0 0 0
57	13234 14 32 32 1 1 1 7504 7504 7504 56310016
58	13248 14 32 32 1 1 1 7504 7504 7504 56310016
59	13262 11 32 32 1 1 1 0 0 0 0
60	13273 11 33 33 1 1 1 0 0 0 0
61	13284 14 33 33 1 1 1 7504 7504 7504 56310016
62	13298 14 33 33 1 1 1 7504 7504 7504 56310016
63	13312 11 33 33 1 1 1 0 0 0 0
64	13323 12 34 34 1 1 1 28 28 28 784
65	13335 12 35 35 1 1 1 28 28 28 784
66	13347 12 36 36 1 1 1 28 28 28 784
67	13359 12 37 37 1 1 1 28 28 28 784
68	13371 12 38 38 1 1 1 28 28 28 784
69	13383 12 39 39 1 1 1 28 28 28 784
70	13395 12 40 40 1 1 1 28 28 28 784
71	13407 12 41 41 1 1 1 28 28 28 784
72	13419 12 42 42 1 1 1 28 28 28 784
73	13431 12 43 43 1 1 1 28 28 28 784
74	13443 12 44 44 1 1 1 28 28 28 784
75	13455 12 45 45 1 1 1 28 28 28 784
76	13467 12 46 46 1 1 1 28 28 28 784
77	13479 12 47 47 1 1 1 28 28 28 784
78	13491 12 48 48 1 1 1 28 28 28 784
79	13503 12 49 49 1 1 1 28 28 28 784
80	13515 12 50 50 1 1 1 28 28 28 784
81	13527 12 51 51 1 1 1 28 28 28 784
vector 82 XHost_SpineLeaf_Network.leaf[1].H[0].eth[0].encap encapPk:vector(packetBytes) ETV
attr interpolationmode none
attr source encapPk
attr title "packets encapsulated, vector(packetBytes)"
vector 83 XHost_SpineLeaf_Network.leaf[1].H[1].eth[0].encap encapPk:vector(packetBytes) ETV
attr interpolationmode none
attr source encapPk
attr title "packets encapsulated, vector(packetBytes)"
vector 84 XHost_SpineLeaf_Network.leaf[2].H[0].eth[0].encap encapPk:vector(packetBytes) ETV
attr interpolationmode none
attr source encapPk
attr title "packets encapsulated, vector(packetBytes)"
vector 85 XHost_SpineLeaf_Network.leaf[2].H[1].eth[0].encap encapPk:vector(packetBytes) ETV
attr interpolationmode none
attr source encapPk
attr title "packets encapsulated, vector(packetBytes)"
vector 86 XHost_SpineLeaf_Network.leaf[3].H[0].eth[0].encap encapPk:vector(packetBytes) ETV
attr interpolationmode none
attr source encapPk
attr title "packets encapsulated, vector(packetBytes)"
vector 87 XHost_SpineLeaf_Network.leaf[3].H[1].eth[0].encap encapPk:vector(packetBytes) ETV
attr interpolationmode none
attr source encapPk
attr title "packets encapsulated, vector(packetBytes)"
vector 88 XHost_SpineLeaf_Network.leaf[4].H[0].eth[0].encap encapPk:vector(packetBytes) ETV
attr interpolationmode none
attr source encapPk
attr title "packets encapsulated, vector(packetBytes)"
vector 89 XHost_SpineLeaf_Network.leaf[4].H[1].eth[0].encap encapPk:vector(packetBytes) ETV
attr interpolationmode none
attr source encapPk
attr title "packets encapsulated, vector(packetBytes)"
vector 90 XHost_SpineLeaf_Network.leaf[5].H[0].eth[0].encap encapPk:vector(packetBytes) ETV
attr interpolationmode none
attr source encapPk
attr title "packets encapsulated, vector(packetBytes)"
vector 91 XHost_SpineLeaf_Network.leaf[5].H[1].eth[0].encap encapPk:vector(packetBytes) ETV
attr interpolationmode none
attr source encapPk
attr title "packets encapsulated, vector(packetBytes)"
vector 92 XHost_SpineLeaf_Network.leaf[6].H[0].eth[0].encap encapPk:vector(packetBytes) ETV
attr interpolationmode none
attr source encapPk
attr title "packets encapsulated, vector(packetBytes)"
vector 93 XHost_SpineLeaf_Network.leaf[6].H[1].eth[0].encap encapPk:vector(packetBytes) ETV
attr interpolationmode none
attr source encapPk
attr title "packets encapsulated, vector(packetBytes)"
vector 94 XHost_SpineLeaf_Network.leaf[7].H[0].eth[0].encap encapPk:vector(packetBytes) ETV
attr interpolationmode none
attr source encapPk
attr title "packets encapsulated, vector(packetBytes)"
vector 95 XHost_SpineLeaf_Network.leaf[7].H[1].eth[0].encap encapPk:vector(packetBytes) ETV
attr interpolationmode none
attr source encapPk
attr title "packets encapsulated, vector(packetBytes)"
vector 96 XHost_SpineLeaf_Network.leaf[0].H[0].eth[0].mac packetReceivedFromUpper:vector(packetBytes) ETV
attr interpolationmode none
attr source packetReceivedFromUpper
attr title "packet bytes from higher layer, vector(packetBytes)"
vector 97 XHost_SpineLeaf_Network.leaf[0].H[0].eth[0].mac.queue packetPushed:vector(packetBytes) ETV
attr interpolationmode none
attr title "packet pushed, vector(packetBytes)"
vector 98 XHost_SpineLeaf_Network.leaf[0].H[0].eth[0].mac.queue queueLength:vector ETV
attr interpolationmode sample-hold
attr source "count(packetPushed) - count(packetPopped) - count(packetRemoved) - count(packetDropped)"
attr title "queue length, vector"
vector 99 XHost_SpineLeaf_Network.leaf[0].H[0].eth[0].mac.queue packetPopped:vector(packetBytes) ETV
attr interpolationmode none
attr title "packet popped, vector(packetBytes)"
vector 100 XHost_SpineLeaf_Network.leaf[0].H[0].eth[0].mac.queue queueingTime:vector ETV
attr interpolationmode none
attr source queueingTime(packetPopped)
attr title "queueing times, vector"
attr unit s
vector 101 XHost_SpineLeaf_Network.leaf[0].H[1].eth[0].mac packetReceivedFromUpper:vector(packetBytes) ETV
attr interpolationmode none
attr source packetReceivedFromUpper
attr title "packet bytes from higher layer, vector(packetBytes)"
vector 102 XHost_SpineLeaf_Network.leaf[0].H[1].eth[0].mac.queue packetPushed:vector(packetBytes) ETV
attr interpolationmode none
attr title "packet pushed, vector(packetBytes)"
vector 103 XHost_SpineLeaf_Network.leaf[0].H[1].eth[0].mac.queue queueLength:vector ETV
attr interpolationmode sample-hold
attr source "count(packetPushed) - count(packetPopped) - count(packetRemoved) - count(packetDropped)"
attr title "queue length, vector"
vector 104 XHost_SpineLeaf_Network.leaf[0].H[1].eth[0].mac.queue packetPopped:vector(packetBytes) ETV
attr interpolationmode none
attr title "packet popped, vector(packetBytes)"
vector 105 XHost_SpineLeaf_Network.leaf[0].H[1].eth[0].mac.queue queueingTime:vector ETV
attr interpolationmode none
attr source queueingTime(packetPopped)
attr title "queueing times, vector"
attr unit s
vector 106 XHost_SpineLeaf_Network.leaf[1].H[0].eth[0].mac packetReceivedFromUpper:vector(packetBytes) ETV
attr interpolationmode none
attr source packetReceivedFromUpper
attr title "packet bytes from higher layer, vector(packetBytes)"
vector 107 XHost_SpineLeaf_Network.leaf[1].H[0].eth[0].mac.queue packetPushed:vector(packetBytes) ETV
attr interpolationmode none
attr title "packet pushed, vector(packetBytes)"
vector 108 XHost_SpineLeaf_Network.leaf[1].H[0].eth[0].mac.queue queueLength:vector ETV
attr interpolationmode sample-hold
attr source "count(packetPushed) - count(packetPopped) - count(packetRemoved) - count(packetDropped)"
attr title "queue length, vector"
vector 109 XHost_SpineLeaf_Network.leaf[1].H[0].eth[0].mac.queue packetPopped:vector(packetBytes) ETV
attr interpolationmode none
attr title "packet popped, vector(packetBytes)"
vector 110 XHost_SpineLeaf_Network.leaf[1].H[0].eth[0].mac.queue queueingTime:vector ETV
attr interpolationmode none
attr source queueingTime(packetPopped)
attr title "queueing times, vector"
attr unit s
vector 111 XHost_SpineLeaf_Network.leaf[1].H[1].eth[0].mac packetReceivedFromUpper:vector(packetBytes) ETV
attr interpolationmode none
attr source packetReceivedFromUpper
attr title "packet bytes from higher layer, vector(packetBytes)"
vector 112 XHost_SpineLeaf_Network.leaf[1].H[1].eth[0].mac.queue packetPushed:vector(packetBytes) ETV
attr interpolationmode none
attr title "packet pushed, vector(packetBytes)"
vector 113 XHost_SpineLeaf_Network.leaf[1].H[1].eth[0].mac.queue queueLength:vector ETV
attr interpolationmode sample-hold
attr source "count(packetPushed) - count(packetPopped) - count(packetRemoved) - count(packetDropped)"
attr title "queue length, vector"
vector 114 XHost_SpineLeaf_Network.leaf[1].H[1].eth[0].mac.queue packetPopped:vector(packetBytes) ETV
attr interpolationmode none
attr title "packet popped, vector(packetBytes)"
vector 115 XHost_SpineLeaf_Network.leaf[1].H[1].eth[0].mac.queue queueingTime:vector ETV
attr interpolationmode none
attr source queueingTime(packetPopped)
attr title "queueing times, vector"
attr unit s
vector 116 XHost_SpineLeaf_Network.leaf[2].H[0].eth[0].mac packetReceivedFromUpper:vector(packetBytes) ETV
attr interpolationmode none
attr source packetReceivedFromUpper
attr title "packet bytes from higher layer, vector(packetBytes)"
vector 117 XHost_SpineLeaf_Network.leaf[2].H[0].eth[0].mac.queue packetPushed:vector(packetBytes) ETV
attr interpolationmode none
attr title "packet pushed, vector(packetBytes)"
vector 118 XHost_SpineLeaf_Network.leaf[2].H[0].eth[0].mac.queue queueLength:vector ETV
attr interpolationmode sample-hold
attr source "count(packetPushed) - count(packetPopped) - count(packetRemoved) - count(packetDropped)"
attr title "queue length, vector"
vector 119 XHost_SpineLeaf_Network.leaf[2].H[0].eth[0].mac.queue packetPopped:vector(packetBytes) ETV
attr interpolationmode none
attr title "packet popped, vector(packetBytes)"
vector 120 XHost_SpineLeaf_Network.leaf[2].H[0].eth[0].mac.queue queueingTime:vector ETV
attr interpolationmode none
attr source queueingTime(packetPopped)
attr title "queueing times, vector"
attr unit s
vector 121 XHost_SpineLeaf_Network.leaf[2].H[1].eth[0].mac packetReceivedFromUpper:vector(packetBytes) ETV
attr interpolationmode none
attr source packetReceivedFromUpper
attr title "packet bytes from higher layer, vector(packetBytes)"
vector 122 XHost_SpineLeaf_Network.leaf[2].H[1].eth[0].mac.queue packetPushed:vector(packetBytes) ETV
attr interpolationmode none
attr title "packet pushed, vector(packetBytes)"
vector 123 XHost_SpineLeaf_Network.leaf[2].H[1].eth[0].mac.queue queueLength:vector ETV
attr interpolationmode sample-hold
attr source "count(packetPushed) - count(packetPopped) - count(packetRemoved) - count(packetDropped)"
attr title "queue length, vector"
vector 124 XHost_SpineLeaf_Network.leaf[2].H[1].eth[0].mac.queue packetPopped:vector(packetBytes) ETV
attr interpolationmode none
attr title "packet popped, vector(packetBytes)"
vector 125 XHost_SpineLeaf_Network.leaf[2].H[1].eth[0].mac.queue queueingTime:vector ETV
attr interpolationmode none
attr source queueingTime(packetPopped)
attr title "queueing times, vector"
attr unit s
vector 126 XHost_SpineLeaf_Network.leaf[3].H[0].eth[0].mac packetReceivedFromUpper:vector(packetBytes) ETV
attr interpolationmode none
attr source packetReceivedFromUpper
attr title "packet bytes from higher layer, vector(packetBytes)"
vector 127 XHost_SpineLeaf_Network.leaf[3].H[0].eth[0].mac.queue packetPushed:vector(packetBytes) ETV
attr interpolationmode none
attr title "packet pushed, vector(packetBytes)"
vector 128 XHost_SpineLeaf_Network.leaf[3].H[0].eth[0].mac.queue queueLength:vector ETV
attr interpolationmode sample-hold
attr source "count(packetPushed) - count(packetPopped) - count(packetRemoved) - count(packetDropped)"
attr title "queue length, vector"
vector 129 XHost_SpineLeaf_Network.leaf[3].H[0].eth[0].mac.queue packetPopped:vector(packetBytes) ETV
attr interpolationmode none
attr title "packet popped, vector(packetBytes)"
vector 130 XHost_SpineLeaf_Network.leaf[3].H[0].eth[0].mac.queue queueingTime:vector ETV
attr interpolationmode none
attr source queueingTime(packetPopped)
attr title "queueing times, vector"
attr unit s
vector 131 XHost_SpineLeaf_Network.leaf[3].H[1].eth[0].mac packetReceivedFromUpper:vector(packetBytes) ETV
attr interpolationmode none
attr source packetReceivedFromUpper
attr title "packet bytes from higher layer, vector(packetBytes)"
vector 132 XHost_SpineLeaf_Network.leaf[3].H[1].eth[0].mac.queue packetPushed:vector(packetBytes) ETV
attr interpolationmode none
attr title "packet pushed, vector(packetBytes)"
vector 133 XHost_SpineLeaf_Network.leaf[3].H[1].eth[0].mac.queue queueLength:vector ETV
attr interpolationmode sample-hold
attr source "count(packetPushed) - count(packetPopped) - count(packetRemoved) - count(packetDropped)"
attr title "queue length, vector"
vector 134 XHost_SpineLeaf_Network.leaf[3].H[1].eth[0].mac.queue packetPopped:vector(packetBytes) ETV
attr interpolationmode none
attr title "packet popped, vector(packetBytes)"
vector 135 XHost_SpineLeaf_Network.leaf[3].H[1].eth[0].mac.queue queueingTime:vector ETV
attr interpolationmode none
attr source queueingTime(packetPopped)
attr title "queueing times, vector"
attr unit s
vector 136 XHost_SpineLeaf_Network.leaf[4].H[0].eth[0].mac packetReceivedFromUpper:vector(packetBytes) ETV
attr interpolationmode none
attr source packetReceivedFromUpper
attr title "packet bytes from higher layer, vector(packetBytes)"
vector 137 XHost_SpineLeaf_Network.leaf[4].H[0].eth[0].mac.queue packetPushed:vector(packetBytes) ETV
attr interpolationmode none
attr title "packet pushed, vector(packetBytes)"
vector 138 XHost_SpineLeaf_Network.leaf[4].H[0].eth[0].mac.queue queueLength:vector ETV
attr interpolationmode sample-hold
attr source "count(packetPushed) - count(packetPopped) - count(packetRemoved) - count(packetDropped)"
attr title "queue length, vector"
vector 139 XHost_SpineLeaf_Network.leaf[4].H[0].eth[0].mac.queue packetPopped:vector(packetBytes) ETV
attr interpolationmode none
attr title "packet popped, vector(packetBytes)"
vector 140 XHost_SpineLeaf_Network.leaf[4].H[0].eth[0].mac.queue queueingTime:vector ETV
attr interpolationmode none
attr source queueingTime(packetPopped)
attr title "queueing times, vector"
attr unit s
vector 141 XHost_SpineLeaf_Network.leaf[4].H[1].eth[0].mac packetReceivedFromUpper:vector(packetBytes) ETV
attr interpolationmode none
attr source packetReceivedFromUpper
attr title "packet bytes from higher layer, vector(packetBytes)"
vector 142 XHost_SpineLeaf_Network.leaf[4].H[1].eth[0].mac.queue packetPushed:vector(packetBytes) ETV
attr interpolationmode none
attr title "packet pushed, vector(packetBytes)"
vector 143 XHost_SpineLeaf_Network.leaf[4].H[1].eth[0].mac.queue queueLength:vector ETV
attr interpolationmode sample-hold
attr source "count(packetPushed) - count(packetPopped) - count(packetRemoved) - count(packetDropped)"
attr title "queue length, vector"
vector 144 XHost_SpineLeaf_Network.leaf[4].H[1].eth[0].mac.queue packetPopped:vector(packetBytes) ETV
attr interpolationmode none
attr title "packet popped, vector(packetBytes)"
vector 145 XHost_SpineLeaf_Network.leaf[4].H[1].eth[0].mac.queue queueingTime:vector ETV
attr interpolationmode none
attr source queueingTime(packetPopped)
attr title "queueing times, vector"
attr unit s
vector 146 XHost_SpineLeaf_Network.leaf[5].H[0].eth[0].mac packetReceivedFromUpper:vector(packetBytes) ETV
attr interpolationmode none
attr source packetReceivedFromUpper
attr title "packet bytes from higher layer, vector(packetBytes)"
vector 147 XHost_SpineLeaf_Network.leaf[5].H[0].eth[0].mac.queue packetPushed:vector(packetBytes) ETV
attr interpolationmode none
attr title "packet pushed, vector(packetBytes)"
vector 148 XHost_SpineLeaf_Network.leaf[5].H[0].eth[0].mac.queue queueLength:vector ETV
attr interpolationmode sample-hold
attr source "count(packetPushed) - count(packetPopped) - count(packetRemoved) - count(packetDropped)"
attr title "queue length, vector"
vector 149 XHost_SpineLeaf_Network.leaf[5].H[0].eth[0].mac.queue packetPopped:vector(packetBytes) ETV
attr interpolationmode none
attr title "packet popped, vector(packetBytes)"
vector 150 XHost_SpineLeaf_Network.leaf[5].H[0].eth[0].mac.queue queueingTime:vector ETV
attr interpolationmode none
attr source queueingTime(packetPopped)
attr title "queueing times, vector"
attr unit s
vector 151 XHost_SpineLeaf_Network.leaf[5].H[1].eth[0].mac packetReceivedFromUpper:vector(packetBytes) ETV
attr interpolationmode none
attr source packetReceivedFromUpper
attr title "packet bytes from higher layer, vector(packetBytes)"
vector 152 XHost_SpineLeaf_Network.leaf[5].H[1].eth[0].mac.queue packetPushed:vector(packetBytes) ETV
attr interpolationmode none
attr title "packet pushed, vector(packetBytes)"
vector 153 XHost_SpineLeaf_Network.leaf[5].H[1].eth[0].mac.queue queueLength:vector ETV
attr interpolationmode sample-hold
attr source "count(packetPushed) - count(packetPopped) - count(packetRemoved) - count(packetDropped)"
attr title "queue length, vector"
vector 154 XHost_SpineLeaf_Network.leaf[5].H[1].eth[0].mac.queue packetPopped:vector(packetBytes) ETV
attr interpolationmode none
attr title "packet popped, vector(packetBytes)"
vector 155 XHost_SpineLeaf_Network.leaf[5].H[1].eth[0].mac.queue queueingTime:vector ETV
attr interpolationmode none
attr source queueingTime(packetPopped)
attr title "queueing times, vector"
attr unit s
vector 156 XHost_SpineLeaf_Network.leaf[6].H[0].eth[0].mac packetReceivedFromUpper:vector(packetBytes) ETV
attr interpolationmode none
attr source packetReceivedFromUpper
attr title "packet bytes from higher layer, vector(packetBytes)"
vector 157 XHost_SpineLeaf_Network.leaf[6].H[0].eth[0].mac.queue packetPushed:vector(packetBytes) ETV
attr interpolationmode none
attr title "packet pushed, vector(packetBytes)"
vector 158 XHost_SpineLeaf_Network.leaf[6].H[0].eth[0].mac.queue queueLength:vector ETV
attr interpolationmode sample-hold
attr source "count(packetPushed) - count(packetPopped) - count(packetRemoved) - count(packetDropped)"
attr title "queue length, vector"
vector 159 XHost_SpineLeaf_Network.leaf[6].H[0].eth[0].mac.queue packetPopped:vector(packetBytes) ETV
attr interpolationmode none
attr title "packet popped, vector(packetBytes)"
vector 160 XHost_SpineLeaf_Network.leaf[6].H[0].eth[0].mac.queue queueingTime:vector ETV
attr interpolationmode none
attr source queueingTime(packetPopped)
attr title "queueing times, vector"
attr unit s
vector 161 XHost_SpineLeaf_Network.leaf[6].H[1].eth[0].mac packetReceivedFromUpper:vector(packetBytes) ETV
attr interpolationmode none
attr source packetReceivedFromUpper
attr title "packet bytes from higher layer, vector(packetBytes)"
vector 162 XHost_SpineLeaf_Network.leaf[6].H[1].eth[0].mac.queue packetPushed:vector(packetBytes) ETV
attr interpolationmode none
attr title "packet pushed, vector(packetBytes)"
vector 163 XHost_SpineLeaf_Network.leaf[6].H[1].eth[0].mac.queue queueLength:vector ETV
attr interpolationmode sample-hold
attr source "count(packetPushed) - count(packetPopped) - count(packetRemoved) - count(packetDropped)"
attr title "queue length, vector"
vector 164 XHost_SpineLeaf_Network.leaf[6].H[1].eth[0].mac.queue packetPopped:vector(packetBytes) ETV
attr interpolationmode none
attr title "packet popped, vector(packetBytes)"
vector 165 XHost_SpineLeaf_Network.leaf[6].H[1].eth[0].mac.queue queueingTime:vector ETV
attr interpolationmode none
attr source queueingTime(packetPopped)
attr title "queueing times, vector"
attr unit s
vector 166 XHost_SpineLeaf_Network.leaf[7].H[0].eth[0].mac packetReceivedFromUpper:vector(packetBytes) ETV
attr interpolationmode none
attr source packetReceivedFromUpper
attr title "packet bytes from higher layer, vector(packetBytes)"
vector 167 XHost_SpineLeaf_Network.leaf[7].H[0].eth[0].mac.queue packetPushed:vector(packetBytes) ETV
attr interpolationmode none
attr title "packet pushed, vector(packetBytes)"
vector 168 XHost_SpineLeaf_Network.leaf[7].H[0].eth[0].mac.queue queueLength:vector ETV
attr interpolationmode sample-hold
attr source "count(packetPushed) - count(packetPopped) - count(packetRemoved) - count(packetDropped)"
attr title "queue length, vector"
vector 169 XHost_SpineLeaf_Network.leaf[7].H[0].eth[0].mac.queue packetPopped:vector(packetBytes) ETV
attr interpolationmode none
attr title "packet popped, vector(packetBytes)"
vector 170 XHost_SpineLeaf_Network.leaf[7].H[0].eth[0].mac.queue queueingTime:vector ETV
attr interpolationmode none
attr source queueingTime(packetPopped)
attr title "queueing times, vector"
attr unit s
vector 171 XHost_SpineLeaf_Network.leaf[7].H[1].eth[0].mac packetReceivedFromUpper:vector(packetBytes) ETV
attr interpolationmode none
attr source packetReceivedFromUpper
attr title "packet bytes from higher layer, vector(packetBytes)"
vector 172 XHost_SpineLeaf_Network.leaf[7].H[1].eth[0].mac.queue packetPushed:vector(packetBytes) ETV
attr interpolationmode none
attr title "packet pushed, vector(packetBytes)"
vector 173 XHost_SpineLeaf_Network.leaf[7].H[1].eth[0].mac.queue queueLength:vector ETV
attr interpolationmode sample-hold
attr source "count(packetPushed) - count(packetPopped) - count(packetRemoved) - count(packetDropped)"
attr title "queue length, vector"
vector 174 XHost_SpineLeaf_Network.leaf[7].H[1].eth[0].mac.queue packetPopped:vector(packetBytes) ETV
attr interpolationmode none
attr title "packet popped, vector(packetBytes)"
vector 175 XHost_SpineLeaf_Network.leaf[7].H[1].eth[0].mac.queue queueingTime:vector ETV
attr interpolationmode none
attr source queueingTime(packetPopped)
attr title "queueing times, vector"
attr unit s
vector 176 XHost_SpineLeaf_Network.leaf[0].H[0].eth[0].mac txPk:vector(packetBytes) ETV
attr interpolationmode none
attr source packetSentToLower
attr title "packets transmitted, vector(packetBytes)"
vector 177 XHost_SpineLeaf_Network.leaf[0].H[1].eth[0].mac txPk:vector(packetBytes) ETV
attr interpolationmode none
attr source packetSentToLower
attr title "packets transmitted, vector(packetBytes)"
vector 178 XHost_SpineLeaf_Network.leaf[1].H[0].eth[0].mac txPk:vector(packetBytes) ETV
attr interpolationmode none
attr source packetSentToLower
attr title "packets transmitted, vector(packetBytes)"
vector 179 XHost_SpineLeaf_Network.leaf[1].H[1].eth[0].mac txPk:vector(packetBytes) ETV
attr interpolationmode none
attr source packetSentToLower
attr title "packets transmitted, vector(packetBytes)"
vector 180 XHost_SpineLeaf_Network.leaf[2].H[0].eth[0].mac txPk:vector(packetBytes) ETV
attr interpolationmode none
attr source packetSentToLower
attr title "packets transmitted, vector(packetBytes)"
vector 181 XHost_SpineLeaf_Network.leaf[2].H[1].eth[0].mac txPk:vector(packetBytes) ETV
attr interpolationmode none
attr source packetSentToLower
attr title "packets transmitted, vector(packetBytes)"
vector 182 XHost_SpineLeaf_Network.leaf[3].H[0].eth[0].mac txPk:vector(packetBytes) ETV
attr interpolationmode none
attr source packetSentToLower
attr title "packets transmitted, vector(packetBytes)"
vector 183 XHost_SpineLeaf_Network.leaf[3].H[1].eth[0].mac txPk:vector(packetBytes) ETV
attr interpolationmode none
attr source packetSentToLower
attr title "packets transmitted, vector(packetBytes)"
vector 184 XHost_SpineLeaf_Network.leaf[4].H[0].eth[0].mac txPk:vector(packetBytes) ETV
attr interpolationmode none
attr source packetSentToLower
attr title "packets transmitted, vector(packetBytes)"
vector 185 XHost_SpineLeaf_Network.leaf[4].H[1].eth[0].mac txPk:vector(packetBytes) ETV
attr interpolationmode none
attr source packetSentToLower
attr title "packets transmitted, vector(packetBytes)"
vector 186 XHost_SpineLeaf_Network.leaf[5].H[0].eth[0].mac txPk:vector(packetBytes) ETV
attr interpolationmode none
attr source packetSentToLower
attr title "packets transmitted, vector(packetBytes)"
vector 187 XHost_SpineLeaf_Network.leaf[5].H[1].eth[0].mac txPk:vector(packetBytes) ETV
attr interpolationmode none
attr source packetSentToLower
attr title "packets transmitted, vector(packetBytes)"
vector 188 XHost_SpineLeaf_Network.leaf[6].H[0].eth[0].mac txPk:vector(packetBytes) ETV
attr interpolationmode none
attr source packetSentToLower
attr title "packets transmitted, vector(packetBytes)"
vector 189 XHost_SpineLeaf_Network.leaf[6].H[1].eth[0].mac txPk:vector(packetBytes) ETV
attr interpolationmode none
attr source packetSentToLower
attr title "packets transmitted, vector(packetBytes)"
vector 190 XHost_SpineLeaf_Network.leaf[7].H[0].eth[0].mac txPk:vector(packetBytes) ETV
attr interpolationmode none
attr source packetSentToLower
attr title "packets transmitted, vector(packetBytes)"
vector 191 XHost_SpineLeaf_Network.leaf[7].H[1].eth[0].mac txPk:vector(packetBytes) ETV
attr interpolationmode none
attr source packetSentToLower
attr title "packets transmitted, vector(packetBytes)"
vector 192 XHost_SpineLeaf_Network.leaf[0].topOfRack.eth[5].mac rxPkOk:vector(packetBytes) ETV
attr interpolationmode none
attr source rxPkOk
attr title "packets received OK, vector(packetBytes)"
vector 193 XHost_SpineLeaf_Network.leaf[0].topOfRack.eth[5].mac passedUpPk:vector(packetBytes) ETV
attr interpolationmode none
attr source packetSentToUpper
attr title "packets passed to higher layer, vector(packetBytes)"
vector 194 XHost_SpineLeaf_Network.leaf[0].topOfRack.eth[6].mac rxPkOk:vector(packetBytes) ETV
attr interpolationmode none
attr source rxPkOk
attr title "packets received OK, vector(packetBytes)"
vector 195 XHost_SpineLeaf_Network.leaf[0].topOfRack.eth[6].mac passedUpPk:vector(packetBytes) ETV
attr interpolationmode none
attr source packetSentToUpper
attr title "packets passed to higher layer, vector(packetBytes)"
vector 196 XHost_SpineLeaf_Network.leaf[1].topOfRack.eth[5].mac rxPkOk:vector(packetBytes) ETV
attr interpolationmode none
attr source rxPkOk
attr title "packets received OK, vector(packetBytes)"
vector 197 XHost_SpineLeaf_Network.leaf[1].topOfRack.eth[5].mac passedUpPk:vector(packetBytes) ETV
attr interpolationmode none
attr source packetSentToUpper
attr title "packets passed to higher layer, vector(packetBytes)"
vector 198 XHost_SpineLeaf_Network.leaf[1].topOfRack.eth[6].mac rxPkOk:vector(packetBytes) ETV
attr interpolationmode none
attr source rxPkOk
attr title "packets received OK, vector(packetBytes)"
vector 199 XHost_SpineLeaf_Network.leaf[1].topOfRack.eth[6].mac passedUpPk:vector(packetBytes) ETV
attr interpolationmode none
attr source packetSentToUpper
attr title "packets passed to higher layer, vector(packetBytes)"
vector 200 XHost_SpineLeaf_Network.leaf[2].topOfRack.eth[5].mac rxPkOk:vector(packetBytes) ETV
attr interpolationmode none
attr source rxPkOk
attr title "packets received OK, vector(packetBytes)"
vector 201 XHost_SpineLeaf_Network.leaf[2].topOfRack.eth[5].mac passedUpPk:vector(packetBytes) ETV
attr interpolationmode none
attr source packetSentToUpper
attr title "packets passed to higher layer, vector(packetBytes)"
vector 202 XHost_SpineLeaf_Network.leaf[2].topOfRack.eth[6].mac rxPkOk:vector(packetBytes) ETV
attr interpolationmode none
attr source rxPkOk
attr title "packets received OK, vector(packetBytes)"
vector 203 XHost_SpineLeaf_Network.leaf[2].topOfRack.eth[6].mac passedUpPk:vector(packetBytes) ETV
attr interpolationmode none
attr source packetSentToUpper
attr title "packets passed to higher layer, vector(packetBytes)"
vector 204 XHost_SpineLeaf_Network.leaf[3].topOfRack.eth[5].mac rxPkOk:vector(packetBytes) ETV
attr interpolationmode none
attr source rxPkOk
attr title "packets received OK, vector(packetBytes)"
vector 205 XHost_SpineLeaf_Network.leaf[3].topOfRack.eth[5].mac passedUpPk:vector(packetBytes) ETV
attr interpolationmode none
attr source packetSentToUpper
attr title "packets passed to higher layer, vector(packetBytes)"
vector 206 XHost_SpineLeaf_Network.leaf[3].topOfRack.eth[6].mac rxPkOk:vector(packetBytes) ETV
attr interpolationmode none
attr source rxPkOk
attr title "packets received OK, vector(packetBytes)"
vector 207 XHost_SpineLeaf_Network.leaf[3].topOfRack.eth[6].mac passedUpPk:vector(packetBytes) ETV
attr interpolationmode none
attr source packetSentToUpper
attr title "packets passed to higher layer, vector(packetBytes)"
vector 208 XHost_SpineLeaf_Network.leaf[4].topOfRack.eth[5].mac rxPkOk:vector(packetBytes) ETV
attr interpolationmode none
attr source rxPkOk
attr title "packets received OK, vector(packetBytes)"
vector 209 XHost_SpineLeaf_Network.leaf[4].topOfRack.eth[5].mac passedUpPk:vector(packetBytes) ETV
attr interpolationmode none
attr source packetSentToUpper
attr title "packets passed to higher layer, vector(packetBytes)"
vector 210 XHost_SpineLeaf_Network.leaf[4].topOfRack.eth[6].mac rxPkOk:vector(packetBytes) ETV
attr interpolationmode none
attr source rxPkOk
attr title "packets received OK, vector(packetBytes)"
vector 211 XHost_SpineLeaf_Network.leaf[4].topOfRack.eth[6].mac passedUpPk:vector(packetBytes) ETV
attr interpolationmode none
attr source packetSentToUpper
attr title "packets passed to higher layer, vector(packetBytes)"
vector 212 XHost_SpineLeaf_Network.leaf[5].topOfRack.eth[5].mac rxPkOk:vector(packetBytes) ETV
attr interpolationmode none
attr source rxPkOk
attr title "packets received OK, vector(packetBytes)"
vector 213 XHost_SpineLeaf_Network.leaf[5].topOfRack.eth[5].mac passedUpPk:vector(packetBytes) ETV
attr interpolationmode none
attr source packetSentToUpper
attr title "packets passed to higher layer, vector(packetBytes)"
vector 214 XHost_SpineLeaf_Network.leaf[5].topOfRack.eth[6].mac rxPkOk:vector(packetBytes) ETV
attr interpolationmode none
attr source rxPkOk
attr title "packets received OK, vector(packetBytes)"
vector 215 XHost_SpineLeaf_Network.leaf[5].topOfRack.eth[6].mac passedUpPk:vector(packetBytes) ETV
attr interpolationmode none
attr source packetSentToUpper
attr title "packets passed to higher layer, vector(packetBytes)"
vector 216 XHost_SpineLeaf_Network.leaf[6].topOfRack.eth[5].mac rxPkOk:vector(packetBytes) ETV
attr interpolationmode none
attr source rxPkOk
attr title "packets received OK, vector(packetBytes)"
vector 217 XHost_SpineLeaf_Network.leaf[6].topOfRack.eth[5].mac passedUpPk:vector(packetBytes) ETV
attr interpolationmode none
attr source packetSentToUpper
attr title "packets passed to higher layer, vector(packetBytes)"
vector 218 XHost_SpineLeaf_Network.leaf[6].topOfRack.eth[6].mac rxPkOk:vector(packetBytes) ETV
attr interpolationmode none
attr source rxPkOk
attr title "packets received OK, vector(packetBytes)"
vector 219 XHost_SpineLeaf_Network.leaf[6].topOfRack.eth[6].mac passedUpPk:vector(packetBytes) ETV
attr interpolationmode none
attr source packetSentToUpper
attr title "packets passed to higher layer, vector(packetBytes)"
vector 220 XHost_SpineLeaf_Network.leaf[7].topOfRack.eth[5].mac rxPkOk:vector(packetBytes) ETV
attr interpolationmode none
attr source rxPkOk
attr title "packets received OK, vector(packetBytes)"
vector 221 XHost_SpineLeaf_Network.leaf[7].topOfRack.eth[5].mac passedUpPk:vector(packetBytes) ETV
attr interpolationmode none
attr source packetSentToUpper
attr title "packets passed to higher layer, vector(packetBytes)"
vector 222 XHost_SpineLeaf_Network.leaf[7].topOfRack.eth[6].mac rxPkOk:vector(packetBytes) ETV
attr interpolationmode none
attr source rxPkOk
attr title "packets received OK, vector(packetBytes)"
vector 223 XHost_SpineLeaf_Network.leaf[7].topOfRack.eth[6].mac passedUpPk:vector(packetBytes) ETV
attr interpolationmode none
attr source packetSentToUpper
attr title "packets passed to higher layer, vector(packetBytes)"
vector 224 XHost_SpineLeaf_Network.leaf[0].topOfRack.eth[5].encap decapPk:vector(packetBytes) ETV
attr interpolationmode none
attr source decapPk
attr title "packets decapsulated, vector(packetBytes)"
vector 225 XHost_SpineLeaf_Network.leaf[0].topOfRack.eth[6].encap decapPk:vector(packetBytes) ETV
attr interpolationmode none
attr source decapPk
attr title "packets decapsulated, vector(packetBytes)"
vector 226 XHost_SpineLeaf_Network.leaf[1].topOfRack.eth[5].encap decapPk:vector(packetBytes) ETV
attr interpolationmode none
attr source decapPk
attr title "packets decapsulated, vector(packetBytes)"
vector 227 XHost_SpineLeaf_Network.leaf[1].topOfRack.eth[6].encap decapPk:vector(packetBytes) ETV
attr interpolationmode none
attr source decapPk
attr title "packets decapsulated, vector(packetBytes)"
vector 228 XHost_SpineLeaf_Network.leaf[2].topOfRack.eth[5].encap decapPk:vector(packetBytes) ETV
attr interpolationmode none
attr source decapPk
attr title "packets decapsulated, vector(packetBytes)"
vector 229 XHost_SpineLeaf_Network.leaf[2].topOfRack.eth[6].encap decapPk:vector(packetBytes) ETV
attr interpolationmode none
attr source decapPk
attr title "packets decapsulated, vector(packetBytes)"
vector 230 XHost_SpineLeaf_Network.leaf[3].topOfRack.eth[5].encap decapPk:vector(packetBytes) ETV
attr interpolationmode none
attr source decapPk
attr title "packets decapsulated, vector(packetBytes)"
vector 231 XHost_SpineLeaf_Network.leaf[3].topOfRack.eth[6].encap decapPk:vector(packetBytes) ETV
attr interpolationmode none
attr source decapPk
attr title "packets decapsulated, vector(packetBytes)"
vector 232 XHost_SpineLeaf_Network.leaf[4].topOfRack.eth[5].encap decapPk:vector(packetBytes) ETV
attr interpolationmode none
attr source decapPk
attr title "packets decapsulated, vector(packetBytes)"
vector 233 XHost_SpineLeaf_Network.leaf[4].topOfRack.eth[6].encap decapPk:vector(packetBytes) ETV
attr interpolationmode none
attr source decapPk
attr title "packets decapsulated, vector(packetBytes)"
vector 234 XHost_SpineLeaf_Network.leaf[5].topOfRack.eth[5].encap decapPk:vector(packetBytes) ETV
attr interpolationmode none
attr source decapPk
attr title "packets decapsulated, vector(packetBytes)"
vector 235 XHost_SpineLeaf_Network.leaf[5].topOfRack.eth[6].encap decapPk:vector(packetBytes) ETV
attr interpolationmode none
attr source decapPk
attr title "packets decapsulated, vector(packetBytes)"
vector 236 XHost_SpineLeaf_Network.leaf[6].topOfRack.eth[5].encap decapPk:vector(packetBytes) ETV
attr interpolationmode none
attr source decapPk
attr title "packets decapsulated, vector(packetBytes)"
vector 237 XHost_SpineLeaf_Network.leaf[6].topOfRack.eth[6].encap decapPk:vector(packetBytes) ETV
attr interpolationmode none
attr source decapPk
attr title "packets decapsulated, vector(packetBytes)"
vector 238 XHost_SpineLeaf_Network.leaf[7].topOfRack.eth[5].encap decapPk:vector(packetBytes) ETV
attr interpolationmode none
attr source decapPk
attr title "packets decapsulated, vector(packetBytes)"
vector 239 XHost_SpineLeaf_Network.leaf[7].topOfRack.eth[6].encap decapPk:vector(packetBytes) ETV
attr interpolationmode none
attr source decapPk
attr title "packets decapsulated, vector(packetBytes)"
vector 240 XHost_SpineLeaf_Network.leaf[0].topOfRack.ipv4.arp arpReplySent:vector(packetBytes) ETV
attr source arpReplySent
attr title "ARP replies sent, vector(packetBytes)"
vector 241 XHost_SpineLeaf_Network.leaf[1].topOfRack.ipv4.arp arpReplySent:vector(packetBytes) ETV
attr source arpReplySent
attr title "ARP replies sent, vector(packetBytes)"
vector 242 XHost_SpineLeaf_Network.leaf[2].topOfRack.ipv4.arp arpReplySent:vector(packetBytes) ETV
attr source arpReplySent
attr title "ARP replies sent, vector(packetBytes)"
vector 243 XHost_SpineLeaf_Network.leaf[3].topOfRack.ipv4.arp arpReplySent:vector(packetBytes) ETV
attr source arpReplySent
attr title "ARP replies sent, vector(packetBytes)"
vector 244 XHost_SpineLeaf_Network.leaf[4].topOfRack.ipv4.arp arpReplySent:vector(packetBytes) ETV
attr source arpReplySent
attr title "ARP replies sent, vector(packetBytes)"
vector 245 XHost_SpineLeaf_Network.leaf[5].topOfRack.ipv4.arp arpReplySent:vector(packetBytes) ETV
attr source arpReplySent
attr title "ARP replies sent, vector(packetBytes)"
vector 246 XHost_SpineLeaf_Network.leaf[6].topOfRack.ipv4.arp arpReplySent:vector(packetBytes) ETV
attr source arpReplySent
attr title "ARP replies sent, vector(packetBytes)"
vector 247 XHost_SpineLeaf_Network.leaf[7].topOfRack.ipv4.arp arpReplySent:vector(packetBytes) ETV
attr source arpReplySent
attr title "ARP replies sent, vector(packetBytes)"
vector 248 XHost_SpineLeaf_Network.leaf[0].topOfRack.eth[5].encap encapPk:vector(packetBytes) ETV
attr interpolationmode none
attr source encapPk
attr title "packets encapsulated, vector(packetBytes)"
vector 249 XHost_SpineLeaf_Network.leaf[0].topOfRack.eth[6].encap encapPk:vector(packetBytes) ETV
attr interpolationmode none
attr source encapPk
attr title "packets encapsulated, vector(packetBytes)"
vector 250 XHost_SpineLeaf_Network.leaf[1].topOfRack.eth[5].encap encapPk:vector(packetBytes) ETV
attr interpolationmode none
attr source encapPk
attr title "packets encapsulated, vector(packetBytes)"
vector 251 XHost_SpineLeaf_Network.leaf[1].topOfRack.eth[6].encap encapPk:vector(packetBytes) ETV
attr interpolationmode none
attr source encapPk
attr title "packets encapsulated, vector(packetBytes)"
vector 252 XHost_SpineLeaf_Network.leaf[2].topOfRack.eth[5].encap encapPk:vector(packetBytes) ETV
attr interpolationmode none
attr source encapPk
attr title "packets encapsulated, vector(packetBytes)"
vector 253 XHost_SpineLeaf_Network.leaf[2].topOfRack.eth[6].encap encapPk:vector(packetBytes) ETV
attr interpolationmode none
attr source encapPk
attr title "packets encapsulated, vector(packetBytes)"
vector 254 XHost_SpineLeaf_Network.leaf[3].topOfRack.eth[5].encap encapPk:vector(packetBytes) ETV
attr interpolationmode none
attr source encapPk
attr title "packets encapsulated, vector(packetBytes)"
vector 255 XHost_SpineLeaf_Network.leaf[3].topOfRack.eth[6].encap encapPk:vector(packetBytes) ETV
attr interpolationmode none
attr source encapPk
attr title "packets encapsulated, vector(packetBytes)"
vector 256 XHost_SpineLeaf_Network.leaf[4].topOfRack.eth[5].encap encapPk:vector(packetBytes) ETV
attr interpolationmode none
attr source encapPk
attr title "packets encapsulated, vector(packetBytes)"
vector 257 XHost_SpineLeaf_Network.leaf[4].topOfRack.eth[6].encap encapPk:vector(packetBytes) ETV
attr interpolationmode none
attr source encapPk
attr title "packets encapsulated, vector(packetBytes)"
vector 258 XHost_SpineLeaf_Network.leaf[5].topOfRack.eth[5].encap encapPk:vector(packetBytes) ETV
attr interpolationmode none
attr source encapPk
attr title "packets encapsulated, vector(packetBytes)"
vector 259 XHost_SpineLeaf_Network.leaf[5].topOfRack.eth[6].encap encapPk:vector(packetBytes) ETV
attr interpolationmode none
attr source encapPk
attr title "packets encapsulated, vector(packetBytes)"
vector 260 XHost_SpineLeaf_Network.leaf[6].topOfRack.eth[5].encap encapPk:vector(packetBytes) ETV
attr interpolationmode none
attr source encapPk
attr title "packets encapsulated, vector(packetBytes)"
vector 261 XHost_SpineLeaf_Network.leaf[6].topOfRack.eth[6].encap encapPk:vector(packetBytes) ETV
attr interpolationmode none
attr source encapPk
attr title "packets encapsulated, vector(packetBytes)"
vector 262 XHost_SpineLeaf_Network.leaf[7].topOfRack.eth[5].encap encapPk:vector(packetBytes) ETV
attr interpolationmode none
attr source encapPk
attr title "packets encapsulated, vector(packetBytes)"
vector 263 XHost_SpineLeaf_Network.leaf[7].topOfRack.eth[6].encap encapPk:vector(packetBytes) ETV
attr interpolationmode none
attr source encapPk
attr title "packets encapsulated, vector(packetBytes)"
vector 264 XHost_SpineLeaf_Network.leaf[0].topOfRack.eth[5].mac packetReceivedFromUpper:vector(packetBytes) ETV
attr interpolationmode none
attr source packetReceivedFromUpper
attr title "packet bytes from higher layer, vector(packetBytes)"
vector 265 XHost_SpineLeaf_Network.leaf[0].topOfRack.eth[5].mac.queue packetPushed:vector(packetBytes) ETV
attr interpolationmode none
attr title "packet pushed, vector(packetBytes)"
vector 266 XHost_SpineLeaf_Network.leaf[0].topOfRack.eth[5].mac.queue queueLength:vector ETV
attr interpolationmode sample-hold
attr source "count(packetPushed) - count(packetPopped) - count(packetRemoved) - count(packetDropped)"
attr title "queue length, vector"
vector 267 XHost_SpineLeaf_Network.leaf[0].topOfRack.eth[5].mac.queue packetPopped:vector(packetBytes) ETV
attr interpolationmode none
attr title "packet popped, vector(packetBytes)"
vector 268 XHost_SpineLeaf_Network.leaf[0].topOfRack.eth[5].mac.queue queueingTime:vector ETV
attr interpolationmode none
attr source queueingTime(packetPopped)
attr title "queueing times, vector"
attr unit s
vector 269 XHost_SpineLeaf_Network.leaf[0].topOfRack.eth[6].mac packetReceivedFromUpper:vector(packetBytes) ETV
attr interpolationmode none
attr source packetReceivedFromUpper
attr title "packet bytes from higher layer, vector(packetBytes)"
vector 270 XHost_SpineLeaf_Network.leaf[0].topOfRack.eth[6].mac.queue packetPushed:vector(packetBytes) ETV
attr interpolationmode none
attr title "packet pushed, vector(packetBytes)"
vector 271 XHost_SpineLeaf_Network.leaf[0].topOfRack.eth[6].mac.queue queueLength:vector ETV
attr interpolationmode sample-hold
attr source "count(packetPushed) - count(packetPopped) - count(packetRemoved) - count(packetDropped)"
attr title "queue length, vector"
vector 272 XHost_SpineLeaf_Network.leaf[0].topOfRack.eth[6].mac.queue packetPopped:vector(packetBytes) ETV
attr interpolationmode none
attr title "packet popped, vector(packetBytes)"
vector 273 XHost_SpineLeaf_Network.leaf[0].topOfRack.eth[6].mac.queue queueingTime:vector ETV
attr interpolationmode none
attr source queueingTime(packetPopped)
attr title "queueing times, vector"
attr unit s
vector 274 XHost_SpineLeaf_Network.leaf[1].topOfRack.eth[5].mac packetReceivedFromUpper:vector(packetBytes) ETV
attr interpolationmode none
attr source packetReceivedFromUpper
attr title "packet bytes from higher layer, vector(packetBytes)"
vector 275 XHost_SpineLeaf_Network.leaf[1].topOfRack.eth[5].mac.queue packetPushed:vector(packetBytes) ETV
attr interpolationmode none
attr title "packet pushed, vector(packetBytes)"
vector 276 XHost_SpineLeaf_Network.leaf[1].topOfRack.eth[5].mac.queue queueLength:vector ETV
attr interpolationmode sample-hold
attr source "count(packetPushed) - count(packetPopped) - count(packetRemoved) - count(packetDropped)"
attr title "queue length, vector"
vector 277 XHost_SpineLeaf_Network.leaf[1].topOfRack.eth[5].mac.queue packetPopped:vector(packetBytes) ETV
attr interpolationmode none
attr title "packet popped, vector(packetBytes)"
vector 278 XHost_SpineLeaf_Network.leaf[1].topOfRack.eth[5].mac.queue queueingTime:vector ETV
attr interpolationmode none
attr source queueingTime(packetPopped)
attr title "queueing times, vector"
attr unit s
vector 279 XHost_SpineLeaf_Network.leaf[1].topOfRack.eth[6].mac packetReceivedFromUpper:vector(packetBytes) ETV
attr interpolationmode none
attr source packetReceivedFromUpper
attr title "packet bytes from higher layer, vector(packetBytes)"
vector 280 XHost_SpineLeaf_Network.leaf[1].topOfRack.eth[6].mac.queue packetPushed:vector(packetBytes) ETV
attr interpolationmode none
attr title "packet pushed, vector(packetBytes)"
vector 281 XHost_SpineLeaf_Network.leaf[1].topOfRack.eth[6].mac.queue queueLength:vector ETV
attr interpolationmode sample-hold
attr source "count(packetPushed) - count(packetPopped) - count(packetRemoved) - count(packetDropped)"
attr title "queue length, vector"
vector 282 XHost_SpineLeaf_Network.leaf[1].topOfRack.eth[6].mac.queue packetPopped:vector(packetBytes) ETV
attr interpolationmode none
attr title "packet popped, vector(packetBytes)"
vector 283 XHost_SpineLeaf_Network.leaf[1].topOfRack.eth[6].mac.queue queueingTime:vector ETV
attr interpolationmode none
attr source queueingTime(packetPopped)
attr title "queueing times, vector"
attr unit s
vector 284 XHost_SpineLeaf_Network.leaf[2].topOfRack.eth[5].mac packetReceivedFromUpper:vector(packetBytes) ETV
attr interpolationmode none
attr source packetReceivedFromUpper
attr title "packet bytes from higher layer, vector(packetBytes)"
vector 285 XHost_SpineLeaf_Network.leaf[2].topOfRack.eth[5].mac.queue packetPushed:vector(packetBytes) ETV
attr interpolationmode none
attr title "packet pushed, vector(packetBytes)"
vector 286 XHost_SpineLeaf_Network.leaf[2].topOfRack.eth[5].mac.queue queueLength:vector ETV
attr interpolationmode sample-hold
attr source "count(packetPushed) - count(packetPopped) - count(packetRemoved) - count(packetDropped)"
attr title "queue length, vector"
vector 287 XHost_SpineLeaf_Network.leaf[2].topOfRack.eth[5].mac.queue packetPopped:vector(packetBytes) ETV
attr interpolationmode none
attr title "packet popped, vector(packetBytes)"
vector 288 XHost_SpineLeaf_Network.leaf[2].topOfRack.eth[5].mac.queue queueingTime:vector ETV
attr interpolationmode none
attr source queueingTime(packetPopped)
attr title "queueing times, vector"
attr unit s
vector 289 XHost_SpineLeaf_Network.leaf[2].topOfRack.eth[6].mac packetReceivedFromUpper:vector(packetBytes) ETV
attr interpolationmode none
attr source packetReceivedFromUpper
attr title "packet bytes from higher layer, vector(packetBytes)"
vector 290 XHost_SpineLeaf_Network.leaf[2].topOfRack.eth[6].mac.queue packetPushed:vector(packetBytes) ETV
attr interpolationmode none
attr title "packet pushed, vector(packetBytes)"
vector 291 XHost_SpineLeaf_Network.leaf[2].topOfRack.eth[6].mac.queue queueLength:vector ETV
attr interpolationmode sample-hold
attr source "count(packetPushed) - count(packetPopped) - count(packetRemoved) - count(packetDropped)"
attr title "queue length, vector"
vector 292 XHost_SpineLeaf_Network.leaf[2].topOfRack.eth[6].mac.queue packetPopped:vector(packetBytes) ETV
attr interpolationmode none
attr title "packet popped, vector(packetBytes)"
vector 293 XHost_SpineLeaf_Network.leaf[2].topOfRack.eth[6].mac.queue queueingTime:vector ETV
attr interpolationmode none
attr source queueingTime(packetPopped)
attr title "queueing times, vector"
attr unit s
vector 294 XHost_SpineLeaf_Network.leaf[3].topOfRack.eth[5].mac packetReceivedFromUpper:vector(packetBytes) ETV
attr interpolationmode none
attr source packetReceivedFromUpper
attr title "packet bytes from higher layer, vector(packetBytes)"
vector 295 XHost_SpineLeaf_Network.leaf[3].topOfRack.eth[5].mac.queue packetPushed:vector(packetBytes) ETV
attr interpolationmode none
attr title "packet pushed, vector(packetBytes)"
vector 296 XHost_SpineLeaf_Network.leaf[3].topOfRack.eth[5].mac.queue queueLength:vector ETV
attr interpolationmode sample-hold
attr source "count(packetPushed) - count(packetPopped) - count(packetRemoved) - count(packetDropped)"
attr title "queue length, vector"
vector 297 XHost_SpineLeaf_Network.leaf[3].topOfRack.eth[5].mac.queue packetPopped:vector(packetBytes) ETV
attr interpolationmode none
attr title "packet popped, vector(packetBytes)"
vector 298 XHost_SpineLeaf_Network.leaf[3].topOfRack.eth[5].mac.queue queueingTime:vector ETV
attr interpolationmode none
attr source queueingTime(packetPopped)
attr title "queueing times, vector"
attr unit s
vector 299 XHost_SpineLeaf_Network.leaf[3].topOfRack.eth[6].mac packetReceivedFromUpper:vector(packetBytes) ETV
attr interpolationmode none
attr source packetReceivedFromUpper
attr title "packet bytes from higher layer, vector(packetBytes)"
vector 300 XHost_SpineLeaf_Network.leaf[3].topOfRack.eth[6].mac.queue packetPushed:vector(packetBytes) ETV
attr interpolationmode none
attr title "packet pushed, vector(packetBytes)"
vector 301 XHost_SpineLeaf_Network.leaf[3].topOfRack.eth[6].mac.queue queueLength:vector ETV
attr interpolationmode sample-hold
attr source "count(packetPushed) - count(packetPopped) - count(packetRemoved) - count(packetDropped)"
attr title "queue length, vector"
vector 302 XHost_SpineLeaf_Network.leaf[3].topOfRack.eth[6].mac.queue packetPopped:vector(packetBytes) ETV
attr interpolationmode none
attr title "packet popped, vector(packetBytes)"
vector 303 XHost_SpineLeaf_Network.leaf[3].topOfRack.eth[6].mac.queue queueingTime:vector ETV
attr interpolationmode none
attr source queueingTime(packetPopped)
attr title "queueing times, vector"
attr unit s
vector 304 XHost_SpineLeaf_Network.leaf[4].topOfRack.eth[5].mac packetReceivedFromUpper:vector(packetBytes) ETV
attr interpolationmode none
attr source packetReceivedFromUpper
attr title "packet bytes from higher layer, vector(packetBytes)"
vector 305 XHost_SpineLeaf_Network.leaf[4].topOfRack.eth[5].mac.queue packetPushed:vector(packetBytes) ETV
attr interpolationmode none
attr title "packet pushed, vector(packetBytes)"
vector 306 XHost_SpineLeaf_Network.leaf[4].topOfRack.eth[5].mac.queue queueLength:vector ETV
attr interpolationmode sample-hold
attr source "count(packetPushed) - count(packetPopped) - count(packetRemoved) - count(packetDropped)"
attr title "queue length, vector"
vector 307 XHost_SpineLeaf_Network.leaf[4].topOfRack.eth[5].mac.queue packetPopped:vector(packetBytes) ETV
attr interpolationmode none
attr title "packet popped, vector(packetBytes)"
vector 308 XHost_SpineLeaf_Network.leaf[4].topOfRack.eth[5].mac.queue queueingTime:vector ETV
attr interpolationmode none
attr source queueingTime(packetPopped)
attr title "queueing times, vector"
attr unit s
vector 309 XHost_SpineLeaf_Network.leaf[4].topOfRack.eth[6].mac packetReceivedFromUpper:vector(packetBytes) ETV
attr interpolationmode none
attr source packetReceivedFromUpper
attr title "packet bytes from higher layer, vector(packetBytes)"
vector 310 XHost_SpineLeaf_Network.leaf[4].topOfRack.eth[6].mac.queue packetPushed:vector(packetBytes) ETV
attr interpolationmode none
attr title "packet pushed, vector(packetBytes)"
vector 311 XHost_SpineLeaf_Network.leaf[4].topOfRack.eth[6].mac.queue queueLength:vector ETV
attr interpolationmode sample-hold
attr source "count(packetPushed) - count(packetPopped) - count(packetRemoved) - count(packetDropped)"
attr title "queue length, vector"
vector 312 XHost_SpineLeaf_Network.leaf[4].topOfRack.eth[6].mac.queue packetPopped:vector(packetBytes) ETV
attr interpolationmode none
attr title "packet popped, vector(packetBytes)"
vector 313 XHost_SpineLeaf_Network.leaf[4].topOfRack.eth[6].mac.queue queueingTime:vector ETV
attr interpolationmode none
attr source queueingTime(packetPopped)
attr title "queueing times, vector"
attr unit s
vector 314 XHost_SpineLeaf_Network.leaf[5].topOfRack.eth[5].mac packetReceivedFromUpper:vector(packetBytes) ETV
attr interpolationmode none
attr source packetReceivedFromUpper
attr title "packet bytes from higher layer, vector(packetBytes)"
vector 315 XHost_SpineLeaf_Network.leaf[5].topOfRack.eth[5].mac.queue packetPushed:vector(packetBytes) ETV
attr interpolationmode none
attr title "packet pushed, vector(packetBytes)"
vector 316 XHost_SpineLeaf_Network.leaf[5].topOfRack.eth[5].mac.queue queueLength:vector ETV
attr interpolationmode sample-hold
attr source "count(packetPushed) - count(packetPopped) - count(packetRemoved) - count(packetDropped)"
attr title "queue length, vector"
vector 317 XHost_SpineLeaf_Network.leaf[5].topOfRack.eth[5].mac.queue packetPopped:vector(packetBytes) ETV
attr interpolationmode none
attr title "packet popped, vector(packetBytes)"
vector 318 XHost_SpineLeaf_Network.leaf[5].topOfRack.eth[5].mac.queue queueingTime:vector ETV
attr interpolationmode none
attr source queueingTime(packetPopped)
attr title "queueing times, vector"
attr unit s
vector 319 XHost_SpineLeaf_Network.leaf[5].topOfRack.eth[6].mac packetReceivedFromUpper:vector(packetBytes) ETV
attr interpolationmode none
attr source packetReceivedFromUpper
attr title "packet bytes from higher layer, vector(packetBytes)"
vector 320 XHost_SpineLeaf_Network.leaf[5].topOfRack.eth[6].mac.queue packetPushed:vector(packetBytes) ETV
attr interpolationmode none
attr title "packet pushed, vector(packetBytes)"
vector 321 XHost_SpineLeaf_Network.leaf[5].topOfRack.eth[6].mac.queue queueLength:vector ETV
attr interpolationmode sample-hold
attr source "count(packetPushed) - count(packetPopped) - count(packetRemoved) - count(packetDropped)"
attr title "queue length, vector"
vector 322 XHost_SpineLeaf_Network.leaf[5].topOfRack.eth[6].mac.queue packetPopped:vector(packetBytes) ETV
attr interpolationmode none
attr title "packet popped, vector(packetBytes)"
vector 323 XHost_SpineLeaf_Network.leaf[5].topOfRack.eth[6].mac.queue queueingTime:vector ETV
attr interpolationmode none
attr source queueingTime(packetPopped)
attr title "queueing times, vector"
attr unit s
vector 324 XHost_SpineLeaf_Network.leaf[6].topOfRack.eth[5].mac packetReceivedFromUpper:vector(packetBytes) ETV
attr interpolationmode none
attr source packetReceivedFromUpper
attr title "packet bytes from higher layer, vector(packetBytes)"
vector 325 XHost_SpineLeaf_Network.leaf[6].topOfRack.eth[5].mac.queue packetPushed:vector(packetBytes) ETV
attr interpolationmode none
attr title "packet pushed, vector(packetBytes)"
vector 326 XHost_SpineLeaf_Network.leaf[6].topOfRack.eth[5].mac.queue queueLength:vector ETV
attr interpolationmode sample-hold
attr source "count(packetPushed) - count(packetPopped) - count(packetRemoved) - count(packetDropped)"
attr title "queue length, vector"
vector 327 XHost_SpineLeaf_Network.leaf[6].topOfRack.eth[5].mac.queue packetPopped:vector(packetBytes) ETV
attr interpolationmode none
attr title "packet popped, vector(packetBytes)"
vector 328 XHost_SpineLeaf_Network.leaf[6].topOfRack.eth[5].mac.queue queueingTime:vector ETV
attr interpolationmode none
attr source queueingTime(packetPopped)
attr title "queueing times, vector"
attr unit s
vector 329 XHost_SpineLeaf_Network.leaf[6].topOfRack.eth[6].mac packetReceivedFromUpper:vector(packetBytes) ETV
attr interpolationmode none
attr source packetReceivedFromUpper
attr title "packet bytes from higher layer, vector(packetBytes)"
vector 330 XHost_SpineLeaf_Network.leaf[6].topOfRack.eth[6].mac.queue packetPushed:vector(packetBytes) ETV
attr interpolationmode none
attr title "packet pushed, vector(packetBytes)"
vector 331 XHost_SpineLeaf_Network.leaf[6].topOfRack.eth[6].mac.queue queueLength:vector ETV
attr interpolationmode sample-hold
attr source "count(packetPushed) - count(packetPopped) - count(packetRemoved) - count(packetDropped)"
attr title "queue length, vector"
vector 332 XHost_SpineLeaf_Network.leaf[6].topOfRack.eth[6].mac.queue packetPopped:vector(packetBytes) ETV
attr interpolationmode none
attr title "packet popped, vector(packetBytes)"
vector 333 XHost_SpineLeaf_Network.leaf[6].topOfRack.eth[6].mac.queue queueingTime:vector ETV
attr interpolationmode none
attr source queueingTime(packetPopped)
attr title "queueing times, vector"
attr unit s
vector 334 XHost_SpineLeaf_Network.leaf[7].topOfRack.eth[5].mac packetReceivedFromUpper:vector(packetBytes) ETV
attr interpolationmode none
attr source packetReceivedFromUpper
attr title "packet bytes from higher layer, vector(packetBytes)"
vector 335 XHost_SpineLeaf_Network.leaf[7].topOfRack.eth[5].mac.queue packetPushed:vector(packetBytes) ETV
attr interpolationmode none
attr title "packet pushed, vector(packetBytes)"
vector 336 XHost_SpineLeaf_Network.leaf[7].topOfRack.eth[5].mac.queue queueLength:vector ETV
attr interpolationmode sample-hold
attr source "count(packetPushed) - count(packetPopped) - count(packetRemoved) - count(packetDropped)"
attr title "queue length, vector"
vector 337 XHost_SpineLeaf_Network.leaf[7].topOfRack.eth[5].mac.queue packetPopped:vector(packetBytes) ETV
attr interpolationmode none
attr title "packet popped, vector(packetBytes)"
vector 338 XHost_SpineLeaf_Network.leaf[7].topOfRack.eth[5].mac.queue queueingTime:vector ETV
attr interpolationmode none
attr source queueingTime(packetPopped)
attr title "queueing times, vector"
attr unit s
vector 339 XHost_SpineLeaf_Network.leaf[7].topOfRack.eth[6].mac packetReceivedFromUpper:vector(packetBytes) ETV
attr interpolationmode none
attr source packetReceivedFromUpper
attr title "packet bytes from higher layer, vector(packetBytes)"
vector 340 XHost_SpineLeaf_Network.leaf[7].topOfRack.eth[6].mac.queue packetPushed:vector(packetBytes) ETV
attr interpolationmode none
attr title "packet pushed, vector(packetBytes)"
vector 341 XHost_SpineLeaf_Network.leaf[7].topOfRack.eth[6].mac.queue queueLength:vector ETV
attr interpolationmode sample-hold
attr source "count(packetPushed) - count(packetPopped) - count(packetRemoved) - count(packetDropped)"
attr title "queue length, vector"
vector 342 XHost_SpineLeaf_Network.leaf[7].topOfRack.eth[6].mac.queue packetPopped:vector(packetBytes) ETV
attr interpolationmode none
attr title "packet popped, vector(packetBytes)"
vector 343 XHost_SpineLeaf_Network.leaf[7].topOfRack.eth[6].mac.queue queueingTime:vector ETV
attr interpolationmode none
attr source queueingTime(packetPopped)
attr title "queueing times, vector"
attr unit s
vector 344 XHost_SpineLeaf_Network.leaf[0].topOfRack.eth[5].mac txPk:vector(packetBytes) ETV
attr interpolationmode none
attr source packetSentToLower
attr title "packets transmitted, vector(packetBytes)"
vector 345 XHost_SpineLeaf_Network.leaf[0].topOfRack.eth[6].mac txPk:vector(packetBytes) ETV
attr interpolationmode none
attr source packetSentToLower
attr title "packets transmitted, vector(packetBytes)"
vector 346 XHost_SpineLeaf_Network.leaf[1].topOfRack.eth[5].mac txPk:vector(packetBytes) ETV
attr interpolationmode none
attr source packetSentToLower
attr title "packets transmitted, vector(packetBytes)"
vector 347 XHost_SpineLeaf_Network.leaf[1].topOfRack.eth[6].mac txPk:vector(packetBytes) ETV
attr interpolationmode none
attr source packetSentToLower
attr title "packets transmitted, vector(packetBytes)"
vector 348 XHost_SpineLeaf_Network.leaf[2].topOfRack.eth[5].mac txPk:vector(packetBytes) ETV
attr interpolationmode none
attr source packetSentToLower
attr title "packets transmitted, vector(packetBytes)"
vector 349 XHost_SpineLeaf_Network.leaf[2].topOfRack.eth[6].mac txPk:vector(packetBytes) ETV
attr interpolationmode none
attr source packetSentToLower
attr title "packets transmitted, vector(packetBytes)"
vector 350 XHost_SpineLeaf_Network.leaf[3].topOfRack.eth[5].mac txPk:vector(packetBytes) ETV
attr interpolationmode none
attr source packetSentToLower
attr title "packets transmitted, vector(packetBytes)"
vector 351 XHost_SpineLeaf_Network.leaf[3].topOfRack.eth[6].mac txPk:vector(packetBytes) ETV
attr interpolationmode none
attr source packetSentToLower
attr title "packets transmitted, vector(packetBytes)"
vector 352 XHost_SpineLeaf_Network.leaf[4].topOfRack.eth[5].mac txPk:vector(packetBytes) ETV
attr interpolationmode none
attr source packetSentToLower
attr title "packets transmitted, vector(packetBytes)"
vector 353 XHost_SpineLeaf_Network.leaf[4].topOfRack.eth[6].mac txPk:vector(packetBytes) ETV
attr interpolationmode none
attr source packetSentToLower
attr title "packets transmitted, vector(packetBytes)"
vector 354 XHost_SpineLeaf_Network.leaf[5].topOfRack.eth[5].mac txPk:vector(packetBytes) ETV
attr interpolationmode none
attr source packetSentToLower
attr title "packets transmitted, vector(packetBytes)"
vector 355 XHost_SpineLeaf_Network.leaf[5].topOfRack.eth[6].mac txPk:vector(packetBytes) ETV
attr interpolationmode none
attr source packetSentToLower
attr title "packets transmitted, vector(packetBytes)"
vector 356 XHost_SpineLeaf_Network.leaf[6].topOfRack.eth[5].mac txPk:vector(packetBytes) ETV
attr interpolationmode none
attr source packetSentToLower
attr title "packets transmitted, vector(packetBytes)"
vector 357 XHost_SpineLeaf_Network.leaf[6].topOfRack.eth[6].mac txPk:vector(packetBytes) ETV
attr interpolationmode none
attr source packetSentToLower
attr title "packets transmitted, vector(packetBytes)"
vector 358 XHost_SpineLeaf_Network.leaf[7].topOfRack.eth[5].mac txPk:vector(packetBytes) ETV
attr interpolationmode none
attr source packetSentToLower
attr title "packets transmitted, vector(packetBytes)"
vector 359 XHost_SpineLeaf_Network.leaf[7].topOfRack.eth[6].mac txPk:vector(packetBytes) ETV
attr interpolationmode none
attr source packetSentToLower
attr title "packets transmitted, vector(packetBytes)"
vector 360 XHost_SpineLeaf_Network.leaf[0].H[0].eth[0].mac rxPkOk:vector(packetBytes) ETV
attr interpolationmode none
attr source rxPkOk
attr title "packets received OK, vector(packetBytes)"
vector 361 XHost_SpineLeaf_Network.leaf[0].H[0].eth[0].mac passedUpPk:vector(packetBytes) ETV
attr interpolationmode none
attr source packetSentToUpper
attr title "packets passed to higher layer, vector(packetBytes)"
vector 362 XHost_SpineLeaf_Network.leaf[0].H[1].eth[0].mac rxPkOk:vector(packetBytes) ETV
attr interpolationmode none
attr source rxPkOk
attr title "packets received OK, vector(packetBytes)"
vector 363 XHost_SpineLeaf_Network.leaf[0].H[1].eth[0].mac passedUpPk:vector(packetBytes) ETV
attr interpolationmode none
attr source packetSentToUpper
attr title "packets passed to higher layer, vector(packetBytes)"
vector 364 XHost_SpineLeaf_Network.leaf[1].H[0].eth[0].mac rxPkOk:vector(packetBytes) ETV
attr interpolationmode none
attr source rxPkOk
attr title "packets received OK, vector(packetBytes)"
vector 365 XHost_SpineLeaf_Network.leaf[1].H[0].eth[0].mac passedUpPk:vector(packetBytes) ETV
attr interpolationmode none
attr source packetSentToUpper
attr title "packets passed to higher layer, vector(packetBytes)"
vector 366 XHost_SpineLeaf_Network.leaf[1].H[1].eth[0].mac rxPkOk:vector(packetBytes) ETV
attr interpolationmode none
attr source rxPkOk
attr title "packets received OK, vector(packetBytes)"
vector 367 XHost_SpineLeaf_Network.leaf[1].H[1].eth[0].mac passedUpPk:vector(packetBytes) ETV
attr interpolationmode none
attr source packetSentToUpper
attr title "packets passed to higher layer, vector(packetBytes)"
vector 368 XHost_SpineLeaf_Network.leaf[2].H[0].eth[0].mac rxPkOk:vector(packetBytes) ETV
attr interpolationmode none
attr source rxPkOk
attr title "packets received OK, vector(packetBytes)"
vector 369 XHost_SpineLeaf_Network.leaf[2].H[0].eth[0].mac passedUpPk:vector(packetBytes) ETV
attr interpolationmode none
attr source packetSentToUpper
attr title "packets passed to higher layer, vector(packetBytes)"
vector 370 XHost_SpineLeaf_Network.leaf[2].H[1].eth[0].mac rxPkOk:vector(packetBytes) ETV
attr interpolationmode none
attr source rxPkOk
attr title "packets received OK, vector(packetBytes)"
vector 371 XHost_SpineLeaf_Network.leaf[2].H[1].eth[0].mac passedUpPk:vector(packetBytes) ETV
attr interpolationmode none
attr source packetSentToUpper
attr title "packets passed to higher layer, vector(packetBytes)"
vector 372 XHost_SpineLeaf_Network.leaf[3].H[0].eth[0].mac rxPkOk:vector(packetBytes) ETV
attr interpolationmode none
attr source rxPkOk
attr title "packets received OK, vector(packetBytes)"
vector 373 XHost_SpineLeaf_Network.leaf[3].H[0].eth[0].mac passedUpPk:vector(packetBytes) ETV
attr interpolationmode none
attr source packetSentToUpper
attr title "packets passed to higher layer, vector(packetBytes)"
vector 374 XHost_SpineLeaf_Network.leaf[3].H[1].eth[0].mac rxPkOk:vector(packetBytes) ETV
attr interpolationmode none
attr source rxPkOk
attr title "packets received OK, vector(packetBytes)"
vector 375 XHost_SpineLeaf_Network.leaf[3].H[1].eth[0].mac passedUpPk:vector(packetBytes) ETV
attr interpolationmode none
attr source packetSentToUpper
attr title "packets passed to higher layer, vector(packetBytes)"
vector 376 XHost_SpineLeaf_Network.leaf[4].H[0].eth[0].mac rxPkOk:vector(packetBytes) ETV
attr interpolationmode none
attr source rxPkOk
attr title "packets received OK, vector(packetBytes)"
vector 377 XHost_SpineLeaf_Network.leaf[4].H[0].eth[0].mac passedUpPk:vector(packetBytes) ETV
attr interpolationmode none
attr source packetSentToUpper
attr title "packets passed to higher layer, vector(packetBytes)"
vector 378 XHost_SpineLeaf_Network.leaf[4].H[1].eth[0].mac rxPkOk:vector(packetBytes) ETV
attr interpolationmode none
attr source rxPkOk
attr title "packets received OK, vector(packetBytes)"
vector 379 XHost_SpineLeaf_Network.leaf[4].H[1].eth[0].mac passedUpPk:vector(packetBytes) ETV
attr interpolationmode none
attr source packetSentToUpper
attr title "packets passed to higher layer, vector(packetBytes)"
vector 380 XHost_SpineLeaf_Network.leaf[5].H[0].eth[0].mac rxPkOk:vector(packetBytes) ETV
attr interpolationmode none
attr source rxPkOk
attr title "packets received OK, vector(packetBytes)"
vector 381 XHost_SpineLeaf_Network.leaf[5].H[0].eth[0].mac passedUpPk:vector(packetBytes) ETV
attr interpolationmode none
attr source packetSentToUpper
attr title "packets passed to higher layer, vector(packetBytes)"
vector 382 XHost_SpineLeaf_Network.leaf[5].H[1].eth[0].mac rxPkOk:vector(packetBytes) ETV
attr interpolationmode none
attr source rxPkOk
attr title "packets received OK, vector(packetBytes)"
vector 383 XHost_SpineLeaf_Network.leaf[5].H[1].eth[0].mac passedUpPk:vector(packetBytes) ETV
attr interpolationmode none
attr source packetSentToUpper
attr title "packets passed to higher layer, vector(packetBytes)"
vector 384 XHost_SpineLeaf_Network.leaf[6].H[0].eth[0].mac rxPkOk:vector(packetBytes) ETV
attr interpolationmode none
attr source rxPkOk
attr title "packets received OK, vector(packetBytes)"
vector 385 XHost_SpineLeaf_Network.leaf[6].H[0].eth[0].mac passedUpPk:vector(packetBytes) ETV
attr interpolationmode none
attr source packetSentToUpper
attr title "packets passed to higher layer, vector(packetBytes)"
vector 386 XHost_SpineLeaf_Network.leaf[6].H[1].eth[0].mac rxPkOk:vector(packetBytes) ETV
attr interpolationmode none
attr source rxPkOk
attr title "packets received OK, vector(packetBytes)"
vector 387 XHost_SpineLeaf_Network.leaf[6].H[1].eth[0].mac passedUpPk:vector(packetBytes) ETV
attr interpolationmode none
attr source packetSentToUpper
attr title "packets passed to higher layer, vector(packetBytes)"
vector 388 XHost_SpineLeaf_Network.leaf[7].H[0].eth[0].mac rxPkOk:vector(packetBytes) ETV
attr interpolationmode none
attr source rxPkOk
attr title "packets received OK, vector(packetBytes)"
vector 389 XHost_SpineLeaf_Network.leaf[7].H[0].eth[0].mac passedUpPk:vector(packetBytes) ETV
attr interpolationmode none
attr source packetSentToUpper
attr title "packets passed to higher layer, vector(packetBytes)"
vector 390 XHost_SpineLeaf_Network.leaf[7].H[1].eth[0].mac rxPkOk:vector(packetBytes) ETV
attr interpolationmode none
attr source rxPkOk
attr title "packets received OK, vector(packetBytes)"
vector 391 XHost_SpineLeaf_Network.leaf[7].H[1].eth[0].mac passedUpPk:vector(packetBytes) ETV
attr interpolationmode none
attr source packetSentToUpper
[...]
1114	610522 330 5493 7891 4.00001162 4.00122442 14 0 1 7 7
1115	610852 174 5493 7891 4.00001162 4.00122442 7 64 594 1508 726152
1116	611026 165 5493 7891 4.00001162 4.00122442 7 0 0 0 0
1117	611191 51 5494 7969 4.00001162 4.00128516 2 46 594 640 354952
1118	611242 51 5494 7969 4.00001162 4.00128516 2 64 594 658 356932
1119	611293 96 5494 7969 4.00001162 4.00128516 4 0 1 2 2
1120	611389 51 5494 7969 4.00001162 4.00128516 2 64 594 658 356932
1121	611440 48 5494 7969 4.00001162 4.00128516 2 0 0 0 0
1122	611488 25 5496 5496 4.00001162 4.00001162 1 46 46 46 2116
1123	611513 25 5496 5496 4.00001162 4.00001162 1 64 64 64 4096
1124	611538 48 5496 5496 4.00001162 4.00001162 2 0 1 1 1
1125	611586 25 5496 5496 4.00001162 4.00001162 1 64 64 64 4096
1126	611611 24 5496 5496 4.00001162 4.00001162 1 0 0 0 0
1127	611635 25 5497 5497 4.00001162 4.00001162 1 46 46 46 2116
1128	611660 25 5497 5497 4.00001162 4.00001162 1 64 64 64 4096
1129	611685 48 5497 5497 4.00001162 4.00001162 2 0 1 1 1
1130	611733 25 5497 5497 4.00001162 4.00001162 1 64 64 64 4096
1131	611758 24 5497 5497 4.00001162 4.00001162 1 0 0 0 0
1132	611782 25 5499 5499 4.00001162 4.00001162 1 46 46 46 2116
1133	611807 25 5499 5499 4.00001162 4.00001162 1 64 64 64 4096
1134	611832 48 5499 5499 4.00001162 4.00001162 2 0 1 1 1
1135	611880 25 5499 5499 4.00001162 4.00001162 1 64 64 64 4096
1136	611905 24 5499 5499 4.00001162 4.00001162 1 0 0 0 0
1137	611929 25 5500 5500 4.00001162 4.00001162 1 46 46 46 2116
1138	611954 25 5500 5500 4.00001162 4.00001162 1 64 64 64 4096
1139	611979 48 5500 5500 4.00001162 4.00001162 2 0 1 1 1
1140	612027 25 5500 5500 4.00001162 4.00001162 1 64 64 64 4096
1141	612052 24 5500 5500 4.00001162 4.00001162 1 0 0 0 0
1142	612076 25 5519 5519 4.00001738 4.00001738 1 64 64 64 4096
1143	612101 177 5520 7950 4.00001738 4.00127258 7 64 594 1508 726152
1144	612278 51 5521 8008 4.00001738 4.00133332 2 64 594 658 356932
1145	612329 25 5522 5522 4.00001738 4.00001738 1 64 64 64 4096
1146	612354 25 5523 5523 4.00001738 4.00001738 1 64 64 64 4096
1147	612379 25 5525 5525 4.00001738 4.00001738 1 64 64 64 4096
1148	612404 25 5526 5526 4.00001738 4.00001738 1 64 64 64 4096
1149	612429 25 5531 5531 4.00001743 4.00001743 1 64 64 64 4096
1150	612454 25 5531 5531 4.00001743 4.00001743 1 64 64 64 4096
1151	612479 177 5532 7951 4.00001743 4.00127263 7 64 594 1508 726152
1152	612656 177 5532 7951 4.00001743 4.00127263 7 64 594 1508 726152
1153	612833 51 5533 8009 4.00001743 4.00133337 2 64 594 658 356932
1154	612884 51 5533 8009 4.00001743 4.00133337 2 64 594 658 356932
1155	612935 25 5534 5534 4.00001743 4.00001743 1 64 64 64 4096
1156	612960 25 5534 5534 4.00001743 4.00001743 1 64 64 64 4096
1157	612985 25 5535 5535 4.00001743 4.00001743 1 64 64 64 4096
1158	613010 25 5535 5535 4.00001743 4.00001743 1 64 64 64 4096
1159	613035 25 5537 5537 4.00001743 4.00001743 1 64 64 64 4096
1160	613060 25 5537 5537 4.00001743 4.00001743 1 64 64 64 4096
1161	613085 25 5538 5538 4.00001743 4.00001743 1 64 64 64 4096
1162	613110 25 5538 5538 4.00001743 4.00001743 1 64 64 64 4096
1163	613135 25 5543 5543 4.00001743 4.00001743 1 46 46 46 2116
1164	613160 177 5544 7952 4.00001743 4.00127263 7 46 576 1382 674132
1165	613337 51 5545 8011 4.00001743 4.00133337 2 46 576 622 333892
1166	613388 25 5546 5546 4.00001743 4.00001743 1 46 46 46 2116
1167	613413 25 5547 5547 4.00001743 4.00001743 1 46 46 46 2116
1168	613438 25 5549 5549 4.00001743 4.00001743 1 46 46 46 2116
1169	613463 25 5550 5550 4.00001743 4.00001743 1 46 46 46 2116
1170	613488 371 5623 7707 4.00002324 4.00108152 13 257505 259649 3365253 871156686653
1171	613859 135 5623 7723 4.00002324 4.00108824 5 7504 7504 37520 281550080
1172	613994 460 5623 7707 4.00002324 4.00108152 19 0 1608 5360 5745920
1173	614454 318 5623 7707 4.00002324 4.00108152 12 7504 7504 90048 675720192
1174	614772 342 5623 7707 4.00002324 4.00108152 12 250001 252145 3017700 758882499836
1175	615114 75 5633 5695 4.00002324 4.00002996 3 64 64 192 12288
1176	615189 145 5690 6924 4.00002996 4.00061984 5 257505 258041 1289133 332373123093
1177	615334 53 5690 6068 4.00002996 4.0000917 2 7504 7504 15008 112620032
1178	615387 146 5690 6924 4.00002996 4.00061984 6 0 536 536 287296
1179	615533 108 5690 6924 4.00002996 4.00061984 4 7504 7504 30016 225240064
1180	615641 116 5690 6924 4.00002996 4.00061984 4 250001 250537 1001612 250806865108
1181	615757 58 5726 5726 4.00003668 4.00003668 2 257505 257505 515010 132617650050
1182	615815 54 5726 6091 4.00003668 4.00009842 2 7504 7504 15008 112620032
1183	615869 24 5726 5726 4.00003668 4.00003668 1 0 0 0 0
1184	615893 27 5726 5726 4.00003668 4.00003668 1 7504 7504 7504 56310016
1185	615920 29 5726 5726 4.00003668 4.00003668 1 250001 250001 250001 62500500001
1186	615949 428 5756 7945 4.0000434 4.0012552 15 257505 260721 3891519 1009617543919
1187	616377 132 5756 7881 4.0000434 4.00120608 5 7504 7504 37520 281550080
1188	616509 534 5756 7945 4.0000434 4.0012552 22 0 1072 3752 2585664
1189	617043 372 5756 7945 4.0000434 4.0012552 14 6968 7504 103984 772826240
1190	617415 400 5756 7945 4.0000434 4.0012552 14 250001 253217 3530030 890097801294
1191	617815 58 5797 5797 4.00005012 4.00005012 2 257505 257505 515010 132617650050
1192	617873 54 5797 6188 4.00005012 4.00012656 2 7504 7504 15008 112620032
1193	617927 24 5797 5797 4.00005012 4.00005012 1 0 0 0 0
1194	617951 27 5797 5797 4.00005012 4.00005012 1 7504 7504 7504 56310016
1195	617978 29 5797 5797 4.00005012 4.00005012 1 250001 250001 250001 62500500001
1196	618007 359 5858 7774 4.00006174 4.00110476 12 1000005 1002150 12011863 12023745103461
1197	618366 347 5858 7774 4.00006174 4.00110476 12 250001 252145 3017700 758882499836
1198	618713 216 5858 7774 4.00006174 4.00110476 8 7504 7504 60032 450480128
1199	618929 29 5862 5862 4.00006174 4.00006174 1 100000 100000 100000 10000000000
1200	618958 261 5864 7296 4.00006174 4.00080206 9 250001 254289 2269305 572211146985
1201	619219 238 5864 7296 4.00006174 4.00080206 9 0 2680 11256 19823424
1202	619457 119 5882 7121 4.00006482 4.00073196 4 1000007 1000544 4000567 4001134296113
1203	619576 115 5882 7121 4.00006482 4.00073196 4 250001 250537 1001612 250806865108
1204	619691 81 5882 7121 4.00006482 4.00073196 3 7504 7504 22512 168930048
1205	619772 29 5886 5886 4.00006482 4.00006482 1 100000 100000 100000 10000000000
1206	619801 87 5888 6448 4.00006482 4.00036362 3 250001 251073 751611 188306939699
1207	619888 77 5888 6448 4.00006482 4.00036362 3 0 1072 1608 1436480
1208	619965 30 5934 5934 4.00007154 4.00007154 1 1000009 1000009 1000009 1000018000081
1209	619995 29 5934 5934 4.00007154 4.00007154 1 250001 250001 250001 62500500001
1210	620024 27 5934 5934 4.00007154 4.00007154 1 7504 7504 7504 56310016
1211	620051 29 5938 5938 4.00007154 4.00007154 1 100000 100000 100000 10000000000
1212	620080 29 5940 5940 4.00007154 4.00007154 1 250001 250001 250001 62500500001
1213	620109 26 5940 5940 4.00007154 4.00007154 1 536 536 536 287296
1214	620135 124 5986 7925 4.00007826 4.00123786 5 28 44 180 6704
1215	620259 124 5987 7926 4.00007826 4.00123786 5 46 62 270 14804
1216	620383 124 5987 7926 4.00007826 4.00123786 5 64 64 320 20480
1217	620507 238 5987 7926 4.00007826 4.00123786 10 0 1 5 5
1218	620745 124 5987 7926 4.00007826 4.00123786 5 64 64 320 20480
1219	620869 119 5987 7926 4.00007826 4.00123786 5 0 0 0 0
1220	620988 328 6000 7982 4.00008008 4.00132084 11 1000010 1002691 11010304 11020625175822
1221	621316 317 6000 7982 4.00008008 4.00132084 11 250001 253217 2770379 697741254027
1222	621633 188 6000 7939 4.00008008 4.00124948 7 7504 7504 52528 394170112
1223	621821 29 6004 6004 4.00008008 4.00008008 1 100000 100000 100000 10000000000
1224	621850 346 6006 7624 4.00008008 4.00102486 12 250001 255897 3035388 767839442540
1225	622196 290 6006 7624 4.00008008 4.00102486 11 0 3216 16080 33326336
1226	622486 125 6026 7928 4.00008402 4.00124362 5 64 64 320 20480
1227	622611 125 6027 7929 4.00008407 4.00124367 5 64 64 320 20480
1228	622736 125 6027 7929 4.00008407 4.00124367 5 64 64 320 20480
1229	622861 125 6029 7930 4.00008407 4.00124367 5 46 46 230 10580
1230	622986 127 6031 7694 4.00008407 4.00105473 5 28 576 1248 666720
1231	623113 127 6032 7695 4.00008407 4.00105473 5 46 594 1338 713268
1232	623240 127 6032 7695 4.00008407 4.00105473 5 64 594 1380 717960
1233	623367 240 6032 7695 4.00008407 4.00105473 10 0 1 5 5
1234	623607 127 6032 7695 4.00008407 4.00105473 5 64 594 1380 717960
1235	623734 127 6032 7695 4.00008407 4.00105473 5 0 4.9e-006 4.9e-006 2.401e-011
1236	623861 314 6038 7723 4.00008498 4.00108824 11 250001 254825 2774131 699649151387
1237	624175 325 6038 7723 4.00008498 4.00108824 11 1000006 1002150 11008642 11017297318924
1238	624500 174 6038 7723 4.00008498 4.00108824 7 0 1072 2144 1723776
1239	624674 127 6056 7756 4.00008983 4.00110289 5 64 594 1380 717960
1240	624801 126 6057 7757 4.00008988 4.00110294 5 64 594 1380 717960
1241	624927 126 6057 7757 4.00008988 4.00110294 5 64 594 1380 717960
1242	625053 126 6059 7758 4.00008988 4.00110294 5 46 576 1290 669900
1243	625179 86 6068 6924 4.0000917 4.00061984 3 250001 251073 751075 188038651331
1244	625265 89 6068 6924 4.0000917 4.00061984 3 1000008 1000008 3000024 3000048000192
1245	625354 49 6068 6360 4.0000917 4.00031042 2 0 536 536 287296
1246	625403 29 6091 6091 4.00009842 4.00009842 1 250001 250001 250001 62500500001
1247	625432 30 6091 6091 4.00009842 4.00009842 1 1000010 1000010 1000010 1000020000100
1248	625462 24 6091 6091 4.00009842 4.00009842 1 0 0 0 0
1249	625486 29 6100 6100 4.0001015 4.0001015 1 1000012 1000012 1000012 1000024000144
1250	625515 28 6100 6100 4.0001015 4.0001015 1 250001 250001 250001 62500500001
1251	625543 26 6100 6100 4.0001015 4.0001015 1 7504 7504 7504 56310016
1252	625569 28 6104 6104 4.0001015 4.0001015 1 100000 100000 100000 10000000000
1253	625597 28 6106 6106 4.0001015 4.0001015 1 250001 250001 250001 62500500001
1254	625625 25 6106 6106 4.0001015 4.0001015 1 536 536 536 287296
1255	625650 316 6172 7945 4.00011984 4.0012552 11 250001 256433 2778955 702108564875
1256	625966 327 6172 7945 4.00011984 4.0012552 11 1000011 1001619 11005481 11010967290579
1257	626293 204 6172 7881 4.00011984 4.00120608 8 0 1608 6432 8044288
1258	626497 29 6188 6188 4.00012656 4.00012656 1 250001 250001 250001 62500500001
1259	626526 30 6188 6188 4.00012656 4.00012656 1 1000013 1000013 1000013 1000026000169
1260	626556 24 6188 6188 4.00012656 4.00012656 1 0 0 0 0
1261	626580 127 6198 7992 4.00013501 4.00132665 5 28 576 1260 667536
1262	626707 127 6199 7993 4.00013501 4.00132665 5 46 594 1350 714516
1263	626834 127 6199 7993 4.00013501 4.00132665 5 64 594 1380 717960
1264	626961 240 6199 7993 4.00013501 4.00132665 10 0 1 5 5
1265	627201 127 6199 7993 4.00013501 4.00132665 5 64 594 1380 717960
1266	627328 120 6199 7993 4.00013501 4.00132665 5 0 0 0 0
1267	627448 127 6201 8002 4.00014077 4.00133241 5 64 594 1380 717960
1268	627575 127 6202 8003 4.00014082 4.00133246 5 64 594 1380 717960
1269	627702 127 6202 8003 4.00014082 4.00133246 5 64 594 1380 717960
1270	627829 127 6203 8004 4.00014082 4.00133246 5 46 576 1290 669900
1271	627956 126 6205 8020 4.00014082 4.0013361 5 28 576 1796 997712
1272	628082 126 6206 8021 4.00014082 4.0013361 5 46 594 1886 1063988
1273	628208 126 6206 8021 4.00014082 4.0013361 5 64 594 1910 1066700
1274	628334 213 6206 8021 4.00014082 4.0013361 9 0 1 5 5
1275	628547 102 6206 8000 4.00014082 4.00132938 4 64 594 1846 1062604
1276	628649 95 6206 8000 4.00014082 4.00132938 4 0 0 0 0
1277	628744 77 6208 7734 4.00014658 4.00109036 3 64 594 1252 709768
1278	628821 77 6209 7735 4.00014663 4.00109041 3 64 594 1252 709768
1279	628898 77 6209 7735 4.00014663 4.00109041 3 64 594 1252 709768
1280	628975 77 6210 7737 4.00014663 4.00109041 3 46 576 1198 665668
1281	629052 235 6289 7723 4.0002613 4.00108824 10 0 0 0 0
1282	629287 119 6292 7331 4.0002613 4.00082304 4 1000006 1001614 4003240 4006484060880
1283	629406 99 6345 7296 4.00029616 4.00080206 3 0.00021608 0.00028982 0.00074032 1.856389352e-007
1284	629505 109 6345 7296 4.00029616 4.00080206 3 2.93025e-005 8.2295977e-005 0.000164248165 1.0403253983132e-008
1285	629614 109 6345 7296 4.00029616 4.00080206 3 0.502513916055 0.6562793025 1.73306095543 1.0130061923344
1286	629723 109 6345 7296 4.00029616 4.00080206 3 2.010137960197 2.6251465125 6.932408069885 16.208825651874
1287	629832 108 6345 7296 4.00029616 4.00080206 4 1072 2680 7504 15513984
1288	629940 132 6345 7296 4.00029616 4.00080206 4 4294967295 4294967295 17179869180 7.3786976260478e+019
1289	630072 263 6345 7774 4.00029616 4.00110476 11 0 2 4 6
1290	630335 48 6357 6924 4.00031042 4.00061984 2 0 0 0 0
1291	630383 30 6360 6360 4.00031042 4.00031042 1 1000008 1000008 1000008 1000016000064
1292	630413 99 6399 6600 4.00034038 4.00046676 4 28 576 672 334944
1293	630512 99 6400 6601 4.00034038 4.00046676 4 46 594 744 360432
1294	630611 99 6400 6601 4.00034038 4.00046676 4 64 594 786 365124
1295	630710 187 6400 6610 4.00034038 4.0004694 8 0 1 4 4
1296	630897 98 6400 6610 4.00034038 4.0004694 4 64 594 786 365124
1297	630995 101 6400 6610 4.00034038 4.0004694 4 0 2.64e-006 2.64e-006 6.9696e-012
1298	631096 101 6409 6625 4.00034614 4.00047516 4 64 594 786 365124
1299	631197 101 6410 6626 4.00034619 4.00047521 4 64 594 786 365124
1300	631298 101 6410 6626 4.00034619 4.00047521 4 64 594 786 365124
1301	631399 101 6411 6627 4.00034619 4.00047521 4 46 576 714 338124
1302	631500 76 6413 6629 4.00034619 4.00047521 3 28 576 632 333344
1303	631576 76 6414 6630 4.00034619 4.00047521 3 46 594 686 357068
1304	631652 76 6414 6630 4.00034619 4.00047521 3 64 594 722 361028
1305	631728 144 6414 6630 4.00034619 4.00047521 6 0 1 3 3
1306	631872 76 6414 6630 4.00034619 4.00047521 3 64 594 722 361028
1307	631948 72 6414 6630 4.00034619 4.00047521 3 0 0 0 0
1308	632020 76 6416 6727 4.00035195 4.00052337 3 64 594 722 361028
1309	632096 74 6417 6728 4.000352 4.00052342 3 64 594 722 361028
1310	632170 74 6417 6728 4.000352 4.00052342 3 64 594 722 361028
1311	632244 74 6418 6730 4.000352 4.00052342 3 46 576 668 336008
1312	632318 237 6434 7945 4.00035954 4.0012552 10 0 0 0 0
1313	632555 176 6437 7881 4.00035954 4.00120608 6 1000011 1002691 6008106 6016227978886
1314	632731 32 6448 6448 4.00036362 4.00036362 1 0.0002988 0.0002988 0.0002988 8.928144e-008
1315	632763 33 6448 6448 4.00036362 4.00036362 1 3.735e-005 3.735e-005 3.735e-005 1.3950225e-009
1316	632796 33 6448 6448 4.00036362 4.00036362 1 0.65628735 0.65628735 0.65628735 0.43071308577002
1317	632829 33 6448 6448 4.00036362 4.00036362 1 2.62518675 2.62518675 2.62518675 6.8916054723756
1318	632862 27 6448 6448 4.00036362 4.00036362 1 1072 1072 1072 1149184
1319	632889 33 6448 6448 4.00036362 4.00036362 1 4294967295 4294967295 4294967295 1.844674406512e+019
1320	632922 71 6448 7121 4.00036362 4.00073196 3 0 1 1 1
1321	632993 76 6495 6725 4.00041183 4.00052251 3 28 576 644 334160
1322	633069 76 6496 6726 4.00041183 4.00052251 3 46 594 698 358316
1323	633145 76 6496 6726 4.00041183 4.00052251 3 64 594 722 361028
1324	633221 144 6496 6726 4.00041183 4.00052251 6 0 1 3 3
1325	633365 76 6496 6726 4.00041183 4.00052251 3 64 594 722 361028
1326	633441 72 6496 6726 4.00041183 4.00052251 3 0 0 0 0
1327	633513 76 6505 6742 4.00041759 4.00052827 3 64 594 722 361028
1328	633589 76 6506 6743 4.00041764 4.00052832 3 64 594 722 361028
1329	633665 76 6506 6743 4.00041764 4.00052832 3 64 594 722 361028
1330	633741 76 6507 6744 4.00041764 4.00052832 3 46 576 668 336008
1331	633817 25 6509 6509 4.00041764 4.00041764 1 28 28 28 784
1332	633842 25 6510 6510 4.00041764 4.00041764 1 46 46 46 2116
1333	633867 25 6510 6510 4.00041764 4.00041764 1 64 64 64 4096
1334	633892 48 6510 6510 4.00041764 4.00041764 2 0 1 1 1
1335	633940 25 6510 6510 4.00041764 4.00041764 1 64 64 64 4096
1336	633965 24 6510 6510 4.00041764 4.00041764 1 0 0 0 0
1337	633989 24 6519 6519 4.0004234 4.0004234 1 64 64 64 4096
1338	634013 25 6520 6520 4.00042345 4.00042345 1 64 64 64 4096
1339	634038 25 6520 6520 4.00042345 4.00042345 1 64 64 64 4096
1340	634063 25 6521 6521 4.00042345 4.00042345 1 46 46 46 2116
1341	634088 98 6551 7571 4.00043862 4.00100652 3 0.00025358 0.00035854 0.00092644 2.916508104e-007
1342	634186 108 6551 7571 4.00043862 4.00100652 3 4.48175e-005 0.000101338711 0.000217069024 1.7306769700964e-008
1343	634294 108 6551 7571 4.00043862 4.00100652 3 0.502528978945 0.6562948175 1.73310785707 1.0130604444448
1344	634402 108 6551 7571 4.00043862 4.00100652 3 2.010217254491 2.6252240875 6.932648497304 16.209935634265
1345	634510 134 6551 7624 4.00043862 4.00102486 5 1072 3216 10720 25856640
1346	634644 164 6551 7624 4.00043862 4.00102486 5 4294967295 4294967295 21474836475 9.2233720325598e+019
1347	634808 238 6551 7982 4.00043862 4.00132084 10 0 1 1 1
1348	635046 103 6578 7601 4.00046086 4.00101588 4 536 536 2144 1149184
1349	635149 131 6578 7601 4.00046086 4.00101588 4 0.00039912 0.00095414 0.00275426 2.0522868012e-006
1350	635280 25 6709 6709 4.0005167 4.0005167 1 536 536 536 287296
1351	635305 32 6709 6709 4.0005167 4.0005167 1 0.00045188 0.00045188 0.00045188 2.041955344e-007
1352	635337 97 6792 7723 4.00054484 4.00108824 3 0.0002652 0.00028354 0.00082694 2.281212116e-007
1353	635434 108 6792 7723 4.00054484 4.00108824 3 3.54425e-005 9.071379e-005 0.000191943478 1.3813116607361e-008
1354	635542 109 6792 7723 4.00054484 4.00108824 3 0.502520020117 0.6562854425 1.733085569492 1.0130345938082
1355	635651 109 6792 7723 4.00054484 4.00108824 3 2.010170794258 2.6251772125 6.932534221446 16.20940652407
1356	635760 81 6792 7723 4.00054484 4.00108824 3 1072 2144 4824 8331584
1357	635841 99 6792 7723 4.00054484 4.00108824 3 4294967295 4294967295 12884901885 5.5340232195359e+019
1358	635940 103 6847 7983 4.00057254 4.00132084 4 536 536 2144 1149184
1359	636043 131 6847 7983 4.00057254 4.00132084 4 0.00049246 0.00124076 0.00380118 3.9214378972e-006
1360	636174 26 6861 6861 4.00057298 4.00057298 1 594 594 594 352836
1361	636200 24 6924 6924 4.00061984 4.00061984 1 1 1 1 1
1362	636224 50 7068 7093 4.00070872 4.00072034 2 28 40 68 2384
1363	636274 50 7069 7094 4.00070872 4.00072034 2 46 58 104 5480
1364	636324 50 7069 7094 4.00070872 4.00072034 2 64 64 128 8192
1365	636374 96 7069 7094 4.00070872 4.00072034 4 0 1 2 2
1366	636470 50 7069 7094 4.00070872 4.00072034 2 64 64 128 8192
1367	636520 48 7069 7094 4.00070872 4.00072034 2 0 0 0 0
1368	636568 49 7071 7103 4.00071448 4.0007261 2 64 64 128 8192
1369	636617 50 7072 7104 4.00071453 4.00072615 2 64 64 128 8192
1370	636667 50 7072 7104 4.00071453 4.00072615 2 64 64 128 8192
1371	636717 50 7073 7105 4.00071453 4.00072615 2 46 46 92 4232
1372	636767 25 7075 7075 4.00071453 4.00071453 1 28 28 28 784
1373	636792 25 7076 7076 4.00071453 4.00071453 1 46 46 46 2116
1374	636817 25 7076 7076 4.00071453 4.00071453 1 64 64 64 4096
1375	636842 48 7076 7076 4.00071453 4.00071453 2 0 1 1 1
1376	636890 25 7076 7076 4.00071453 4.00071453 1 64 64 64 4096
1377	636915 24 7076 7076 4.00071453 4.00071453 1 0 0 0 0
1378	636939 25 7089 7089 4.00072029 4.00072029 1 64 64 64 4096
1379	636964 25 7090 7090 4.00072034 4.00072034 1 64 64 64 4096
1380	636989 25 7090 7090 4.00072034 4.00072034 1 64 64 64 4096
1381	637014 25 7091 7091 4.00072034 4.00072034 1 46 46 46 2116
1382	637039 104 7192 7630 4.00075294 4.00102486 4 594 594 2376 1411344
1383	637143 71 7315 7707 4.00081632 4.00108152 3 1 3 6 14
1384	637214 63 7395 7801 4.00088504 4.001128 2 0.00024296 0.0005255 0.00076846 3.351798116e-007
1385	637277 70 7395 7801 4.00088504 4.001128 2 6.56875e-005 8.7846563e-005 0.000153534063 1.2031866287163e-008
1386	637347 70 7395 7801 4.00088504 4.001128 2 0.574298385625 0.6563156875 1.230614073125 0.76056891739008
1387	637417 70 7395 7801 4.00088504 4.001128 2 2.297281389063 2.6253284375 4.922609826563 12.169851185281
1388	637487 79 7395 7881 4.00088504 4.00120608 3 1072 2144 4824 8331584
1389	637566 97 7395 7881 4.00088504 4.00120608 3 4294967295 4294967295 12884901885 5.5340232195359e+019
1390	637663 47 7865 7945 4.00119936 4.0012552 2 1 2 3 5

