file 196327 1612374023                                          
version 2
run Traffic_1-0-20210203-12:39:00-14884
attr configname Traffic_1
attr datetime 20210203-12:39:00
attr experiment Traffic_1
attr inifile XHost_SpineLeaf.ini
attr iterationvars ""
attr iterationvarsf ""
attr measurement ""
attr network XHost_SpineLeaf_Network
attr processid 14884
attr repetition 0
attr replication #0
attr resultdir results
attr runnumber 0
attr seedset 0
param **.borderLeaf.**.packetCapacity 1
param **.leaf[*].**.packetCapacity 1
param **.spine[*].**.packetCapacity 1
param **.H[*].numApps 1
param **.border.numApps 1
param **.H[*].app[0].typename "\"TcpSessionApp\""
param **.H[*].app[0].connectAddress "\"border\""
param **.H[*].app[0].tOpen 1.0s
param **.H[*].app[0].tSend 1.1s
param **.H[*].app[0].sendBytes 100000B
param **.H[*].app[0].tClose 0s
param **.border.app[0].typename "\"TcpEchoApp\""
param **.LanVisualizer.interfaceTableVisualizer.displayInterfaceTables true
param **.LanVisualizer.interfaceTableVisualizer.displayWiredInterfacesAtConnections false
param **.LanVisualizer.interfaceTableVisualizer.nodeFilter "\"not (*topOfRack or *H*)\""
param **.LanVisualizer.interfaceTableVisualizer.placementPriority 2
param **.LanVisualizer.interfaceTableVisualizer.format "\"%N %\\\\%n/%l%\\\\%m\""
param **.LanVisualizer.packetDropVisualizer.displayPacketDrops true
param **.LanVisualizer.packetDropVisualizer.labelFormat "\"%n/reason: %r\""
param **.LanVisualizer.packetDropVisualizer.fadeOutTime 10s
param **.LeafVisualizer.interfaceTableVisualizer.displayInterfaceTables true
param **.LeafVisualizer.interfaceTableVisualizer.displayWiredInterfacesAtConnections false
param **.LeafVisualizer.interfaceTableVisualizer.placementPriority 2
param **.LeafVisualizer.interfaceTableVisualizer.format "\"%N %\\\\%n/%l%\\\\%m\""
param **.configurator.config "xmldoc(\"XHost_SpineLeaf_Routing.xml\")"

vector 0 XHost_SpineLeaf_Network.leaf[0].H[0].tcp.conn-17 tcpRcvQueueBytes:vector ETV
attr interpolationmode sample-hold
vector 1 XHost_SpineLeaf_Network.leaf[0].H[0].tcp.conn-17 rcvAdv:vector ETV
attr interpolationmode sample-hold
vector 2 XHost_SpineLeaf_Network.leaf[0].H[0].tcp.conn-17 rcvWnd:vector ETV
attr interpolationmode sample-hold
vector 3 XHost_SpineLeaf_Network.leaf[0].H[0].tcp.conn-17 sndAck:vector ETV
attr interpolationmode sample-hold
vector 4 XHost_SpineLeaf_Network.leaf[0].H[1].tcp.conn-18 tcpRcvQueueBytes:vector ETV
attr interpolationmode sample-hold
vector 5 XHost_SpineLeaf_Network.leaf[0].H[1].tcp.conn-18 rcvAdv:vector ETV
attr interpolationmode sample-hold
vector 6 XHost_SpineLeaf_Network.leaf[0].H[1].tcp.conn-18 rcvWnd:vector ETV
attr interpolationmode sample-hold
vector 7 XHost_SpineLeaf_Network.leaf[0].H[1].tcp.conn-18 sndAck:vector ETV
attr interpolationmode sample-hold
vector 8 XHost_SpineLeaf_Network.leaf[1].H[0].tcp.conn-19 tcpRcvQueueBytes:vector ETV
attr interpolationmode sample-hold
vector 9 XHost_SpineLeaf_Network.leaf[1].H[0].tcp.conn-19 rcvAdv:vector ETV
attr interpolationmode sample-hold
vector 10 XHost_SpineLeaf_Network.leaf[1].H[0].tcp.conn-19 rcvWnd:vector ETV
attr interpolationmode sample-hold
vector 11 XHost_SpineLeaf_Network.leaf[1].H[0].tcp.conn-19 sndAck:vector ETV
attr interpolationmode sample-hold
vector 12 XHost_SpineLeaf_Network.leaf[1].H[1].tcp.conn-20 tcpRcvQueueBytes:vector ETV
attr interpolationmode sample-hold
vector 13 XHost_SpineLeaf_Network.leaf[1].H[1].tcp.conn-20 rcvAdv:vector ETV
attr interpolationmode sample-hold
vector 14 XHost_SpineLeaf_Network.leaf[1].H[1].tcp.conn-20 rcvWnd:vector ETV
attr interpolationmode sample-hold
vector 15 XHost_SpineLeaf_Network.leaf[1].H[1].tcp.conn-20 sndAck:vector ETV
attr interpolationmode sample-hold
vector 16 XHost_SpineLeaf_Network.leaf[2].H[0].tcp.conn-21 tcpRcvQueueBytes:vector ETV
attr interpolationmode sample-hold
vector 17 XHost_SpineLeaf_Network.leaf[2].H[0].tcp.conn-21 rcvAdv:vector ETV
attr interpolationmode sample-hold
vector 18 XHost_SpineLeaf_Network.leaf[2].H[0].tcp.conn-21 rcvWnd:vector ETV
attr interpolationmode sample-hold
vector 19 XHost_SpineLeaf_Network.leaf[2].H[0].tcp.conn-21 sndAck:vector ETV
attr interpolationmode sample-hold
vector 20 XHost_SpineLeaf_Network.leaf[2].H[1].tcp.conn-22 tcpRcvQueueBytes:vector ETV
attr interpolationmode sample-hold
vector 21 XHost_SpineLeaf_Network.leaf[2].H[1].tcp.conn-22 rcvAdv:vector ETV
attr interpolationmode sample-hold
vector 22 XHost_SpineLeaf_Network.leaf[2].H[1].tcp.conn-22 rcvWnd:vector ETV
attr interpolationmode sample-hold
vector 23 XHost_SpineLeaf_Network.leaf[2].H[1].tcp.conn-22 sndAck:vector ETV
attr interpolationmode sample-hold
vector 24 XHost_SpineLeaf_Network.leaf[3].H[0].tcp.conn-23 tcpRcvQueueBytes:vector ETV
attr interpolationmode sample-hold
vector 25 XHost_SpineLeaf_Network.leaf[3].H[0].tcp.conn-23 rcvAdv:vector ETV
attr interpolationmode sample-hold
vector 26 XHost_SpineLeaf_Network.leaf[3].H[0].tcp.conn-23 rcvWnd:vector ETV
attr interpolationmode sample-hold
vector 27 XHost_SpineLeaf_Network.leaf[3].H[0].tcp.conn-23 sndAck:vector ETV
attr interpolationmode sample-hold
vector 28 XHost_SpineLeaf_Network.leaf[3].H[1].tcp.conn-24 tcpRcvQueueBytes:vector ETV
attr interpolationmode sample-hold
vector 29 XHost_SpineLeaf_Network.leaf[3].H[1].tcp.conn-24 rcvAdv:vector ETV
attr interpolationmode sample-hold
vector 30 XHost_SpineLeaf_Network.leaf[3].H[1].tcp.conn-24 rcvWnd:vector ETV
attr interpolationmode sample-hold
vector 31 XHost_SpineLeaf_Network.leaf[3].H[1].tcp.conn-24 sndAck:vector ETV
attr interpolationmode sample-hold
vector 32 XHost_SpineLeaf_Network.leaf[4].H[0].tcp.conn-25 tcpRcvQueueBytes:vector ETV
attr interpolationmode sample-hold
vector 33 XHost_SpineLeaf_Network.leaf[4].H[0].tcp.conn-25 rcvAdv:vector ETV
attr interpolationmode sample-hold
vector 34 XHost_SpineLeaf_Network.leaf[4].H[0].tcp.conn-25 rcvWnd:vector ETV
attr interpolationmode sample-hold
vector 35 XHost_SpineLeaf_Network.leaf[4].H[0].tcp.conn-25 sndAck:vector ETV
attr interpolationmode sample-hold
vector 36 XHost_SpineLeaf_Network.leaf[4].H[1].tcp.conn-26 tcpRcvQueueBytes:vector ETV
attr interpolationmode sample-hold
vector 37 XHost_SpineLeaf_Network.leaf[4].H[1].tcp.conn-26 rcvAdv:vector ETV
attr interpolationmode sample-hold
vector 38 XHost_SpineLeaf_Network.leaf[4].H[1].tcp.conn-26 rcvWnd:vector ETV
attr interpolationmode sample-hold
vector 39 XHost_SpineLeaf_Network.leaf[4].H[1].tcp.conn-26 sndAck:vector ETV
attr interpolationmode sample-hold
vector 40 XHost_SpineLeaf_Network.leaf[5].H[0].tcp.conn-27 tcpRcvQueueBytes:vector ETV
attr interpolationmode sample-hold
vector 41 XHost_SpineLeaf_Network.leaf[5].H[0].tcp.conn-27 rcvAdv:vector ETV
attr interpolationmode sample-hold
vector 42 XHost_SpineLeaf_Network.leaf[5].H[0].tcp.conn-27 rcvWnd:vector ETV
attr interpolationmode sample-hold
vector 43 XHost_SpineLeaf_Network.leaf[5].H[0].tcp.conn-27 sndAck:vector ETV
attr interpolationmode sample-hold
vector 44 XHost_SpineLeaf_Network.leaf[5].H[1].tcp.conn-28 tcpRcvQueueBytes:vector ETV
attr interpolationmode sample-hold
vector 45 XHost_SpineLeaf_Network.leaf[5].H[1].tcp.conn-28 rcvAdv:vector ETV
attr interpolationmode sample-hold
vector 46 XHost_SpineLeaf_Network.leaf[5].H[1].tcp.conn-28 rcvWnd:vector ETV
attr interpolationmode sample-hold
vector 47 XHost_SpineLeaf_Network.leaf[5].H[1].tcp.conn-28 sndAck:vector ETV
attr interpolationmode sample-hold
vector 48 XHost_SpineLeaf_Network.leaf[6].H[0].tcp.conn-29 tcpRcvQueueBytes:vector ETV
attr interpolationmode sample-hold
vector 49 XHost_SpineLeaf_Network.leaf[6].H[0].tcp.conn-29 rcvAdv:vector ETV
attr interpolationmode sample-hold
vector 50 XHost_SpineLeaf_Network.leaf[6].H[0].tcp.conn-29 rcvWnd:vector ETV
attr interpolationmode sample-hold
vector 51 XHost_SpineLeaf_Network.leaf[6].H[0].tcp.conn-29 sndAck:vector ETV
attr interpolationmode sample-hold
vector 52 XHost_SpineLeaf_Network.leaf[6].H[1].tcp.conn-30 tcpRcvQueueBytes:vector ETV
attr interpolationmode sample-hold
vector 53 XHost_SpineLeaf_Network.leaf[6].H[1].tcp.conn-30 rcvAdv:vector ETV
attr interpolationmode sample-hold
vector 54 XHost_SpineLeaf_Network.leaf[6].H[1].tcp.conn-30 rcvWnd:vector ETV
attr interpolationmode sample-hold
vector 55 XHost_SpineLeaf_Network.leaf[6].H[1].tcp.conn-30 sndAck:vector ETV
attr interpolationmode sample-hold
vector 56 XHost_SpineLeaf_Network.leaf[7].H[0].tcp.conn-31 tcpRcvQueueBytes:vector ETV
attr interpolationmode sample-hold
vector 57 XHost_SpineLeaf_Network.leaf[7].H[0].tcp.conn-31 rcvAdv:vector ETV
attr interpolationmode sample-hold
vector 58 XHost_SpineLeaf_Network.leaf[7].H[0].tcp.conn-31 rcvWnd:vector ETV
attr interpolationmode sample-hold
vector 59 XHost_SpineLeaf_Network.leaf[7].H[0].tcp.conn-31 sndAck:vector ETV
attr interpolationmode sample-hold
vector 60 XHost_SpineLeaf_Network.leaf[7].H[1].tcp.conn-32 tcpRcvQueueBytes:vector ETV
attr interpolationmode sample-hold
vector 61 XHost_SpineLeaf_Network.leaf[7].H[1].tcp.conn-32 rcvAdv:vector ETV
attr interpolationmode sample-hold
vector 62 XHost_SpineLeaf_Network.leaf[7].H[1].tcp.conn-32 rcvWnd:vector ETV
attr interpolationmode sample-hold
vector 63 XHost_SpineLeaf_Network.leaf[7].H[1].tcp.conn-32 sndAck:vector ETV
attr interpolationmode sample-hold
vector 64 XHost_SpineLeaf_Network.leaf[0].H[0].ipv4.arp arpRequestSent:vector(packetBytes) ETV
attr source arpRequestSent
attr title "ARP request sent, vector(packetBytes)"
vector 65 XHost_SpineLeaf_Network.leaf[0].H[1].ipv4.arp arpRequestSent:vector(packetBytes) ETV
attr source arpRequestSent
attr title "ARP request sent, vector(packetBytes)"
vector 66 XHost_SpineLeaf_Network.leaf[1].H[0].ipv4.arp arpRequestSent:vector(packetBytes) ETV
attr source arpRequestSent
attr title "ARP request sent, vector(packetBytes)"
vector 67 XHost_SpineLeaf_Network.leaf[1].H[1].ipv4.arp arpRequestSent:vector(packetBytes) ETV
attr source arpRequestSent
attr title "ARP request sent, vector(packetBytes)"
vector 68 XHost_SpineLeaf_Network.leaf[2].H[0].ipv4.arp arpRequestSent:vector(packetBytes) ETV
attr source arpRequestSent
attr title "ARP request sent, vector(packetBytes)"
vector 69 XHost_SpineLeaf_Network.leaf[2].H[1].ipv4.arp arpRequestSent:vector(packetBytes) ETV
attr source arpRequestSent
attr title "ARP request sent, vector(packetBytes)"
vector 70 XHost_SpineLeaf_Network.leaf[3].H[0].ipv4.arp arpRequestSent:vector(packetBytes) ETV
attr source arpRequestSent
attr title "ARP request sent, vector(packetBytes)"
vector 71 XHost_SpineLeaf_Network.leaf[3].H[1].ipv4.arp arpRequestSent:vector(packetBytes) ETV
attr source arpRequestSent
attr title "ARP request sent, vector(packetBytes)"
vector 72 XHost_SpineLeaf_Network.leaf[4].H[0].ipv4.arp arpRequestSent:vector(packetBytes) ETV
attr source arpRequestSent
attr title "ARP request sent, vector(packetBytes)"
vector 73 XHost_SpineLeaf_Network.leaf[4].H[1].ipv4.arp arpRequestSent:vector(packetBytes) ETV
attr source arpRequestSent
attr title "ARP request sent, vector(packetBytes)"
vector 74 XHost_SpineLeaf_Network.leaf[5].H[0].ipv4.arp arpRequestSent:vector(packetBytes) ETV
attr source arpRequestSent
attr title "ARP request sent, vector(packetBytes)"
vector 75 XHost_SpineLeaf_Network.leaf[5].H[1].ipv4.arp arpRequestSent:vector(packetBytes) ETV
attr source arpRequestSent
attr title "ARP request sent, vector(packetBytes)"
vector 76 XHost_SpineLeaf_Network.leaf[6].H[0].ipv4.arp arpRequestSent:vector(packetBytes) ETV
attr source arpRequestSent
attr title "ARP request sent, vector(packetBytes)"
vector 77 XHost_SpineLeaf_Network.leaf[6].H[1].ipv4.arp arpRequestSent:vector(packetBytes) ETV
attr source arpRequestSent
attr title "ARP request sent, vector(packetBytes)"
vector 78 XHost_SpineLeaf_Network.leaf[7].H[0].ipv4.arp arpRequestSent:vector(packetBytes) ETV
attr source arpRequestSent
attr title "ARP request sent, vector(packetBytes)"
vector 79 XHost_SpineLeaf_Network.leaf[7].H[1].ipv4.arp arpRequestSent:vector(packetBytes) ETV
attr source arpRequestSent
attr title "ARP request sent, vector(packetBytes)"
vector 80 XHost_SpineLeaf_Network.leaf[0].H[0].eth[0].encap encapPk:vector(packetBytes) ETV
attr interpolationmode none
attr source encapPk
attr title "packets encapsulated, vector(packetBytes)"
vector 81 XHost_SpineLeaf_Network.leaf[0].H[1].eth[0].encap encapPk:vector(packetBytes) ETV
attr interpolationmode none
attr source encapPk
attr title "packets encapsulated, vector(packetBytes)"
vector 82 XHost_SpineLeaf_Network.leaf[1].H[0].eth[0].encap encapPk:vector(packetBytes) ETV
attr interpolationmode none
attr source encapPk
attr title "packets encapsulated, vector(packetBytes)"
vector 83 XHost_SpineLeaf_Network.leaf[1].H[1].eth[0].encap encapPk:vector(packetBytes) ETV
attr interpolationmode none
attr source encapPk
attr title "packets encapsulated, vector(packetBytes)"
vector 84 XHost_SpineLeaf_Network.leaf[2].H[0].eth[0].encap encapPk:vector(packetBytes) ETV
attr interpolationmode none
attr source encapPk
attr title "packets encapsulated, vector(packetBytes)"
vector 85 XHost_SpineLeaf_Network.leaf[2].H[1].eth[0].encap encapPk:vector(packetBytes) ETV
attr interpolationmode none
attr source encapPk
attr title "packets encapsulated, vector(packetBytes)"
vector 86 XHost_SpineLeaf_Network.leaf[3].H[0].eth[0].encap encapPk:vector(packetBytes) ETV
attr interpolationmode none
attr source encapPk
attr title "packets encapsulated, vector(packetBytes)"
vector 87 XHost_SpineLeaf_Network.leaf[3].H[1].eth[0].encap encapPk:vector(packetBytes) ETV
attr interpolationmode none
attr source encapPk
attr title "packets encapsulated, vector(packetBytes)"
vector 88 XHost_SpineLeaf_Network.leaf[4].H[0].eth[0].encap encapPk:vector(packetBytes) ETV
attr interpolationmode none
attr source encapPk
attr title "packets encapsulated, vector(packetBytes)"
vector 89 XHost_SpineLeaf_Network.leaf[4].H[1].eth[0].encap encapPk:vector(packetBytes) ETV
attr interpolationmode none
attr source encapPk
attr title "packets encapsulated, vector(packetBytes)"
vector 90 XHost_SpineLeaf_Network.leaf[5].H[0].eth[0].encap encapPk:vector(packetBytes) ETV
attr interpolationmode none
attr source encapPk
attr title "packets encapsulated, vector(packetBytes)"
vector 91 XHost_SpineLeaf_Network.leaf[5].H[1].eth[0].encap encapPk:vector(packetBytes) ETV
attr interpolationmode none
attr source encapPk
attr title "packets encapsulated, vector(packetBytes)"
vector 92 XHost_SpineLeaf_Network.leaf[6].H[0].eth[0].encap encapPk:vector(packetBytes) ETV
attr interpolationmode none
attr source encapPk
attr title "packets encapsulated, vector(packetBytes)"
vector 93 XHost_SpineLeaf_Network.leaf[6].H[1].eth[0].encap encapPk:vector(packetBytes) ETV
attr interpolationmode none
attr source encapPk
attr title "packets encapsulated, vector(packetBytes)"
vector 94 XHost_SpineLeaf_Network.leaf[7].H[0].eth[0].encap encapPk:vector(packetBytes) ETV
attr interpolationmode none
attr source encapPk
attr title "packets encapsulated, vector(packetBytes)"
vector 95 XHost_SpineLeaf_Network.leaf[7].H[1].eth[0].encap encapPk:vector(packetBytes) ETV
attr interpolationmode none
attr source encapPk
attr title "packets encapsulated, vector(packetBytes)"
vector 96 XHost_SpineLeaf_Network.leaf[0].H[0].eth[0].mac packetReceivedFromUpper:vector(packetBytes) ETV
attr interpolationmode none
attr source packetReceivedFromUpper
attr title "packet bytes from higher layer, vector(packetBytes)"
vector 97 XHost_SpineLeaf_Network.leaf[0].H[0].eth[0].mac.queue packetPushed:vector(packetBytes) ETV
attr interpolationmode none
attr title "packet pushed, vector(packetBytes)"
vector 98 XHost_SpineLeaf_Network.leaf[0].H[0].eth[0].mac.queue queueLength:vector ETV
attr interpolationmode sample-hold
attr source "count(packetPushed) - count(packetPopped) - count(packetRemoved) - count(packetDropped)"
attr title "queue length, vector"
vector 99 XHost_SpineLeaf_Network.leaf[0].H[0].eth[0].mac.queue packetPopped:vector(packetBytes) ETV
attr interpolationmode none
attr title "packet popped, vector(packetBytes)"
vector 100 XHost_SpineLeaf_Network.leaf[0].H[0].eth[0].mac.queue queueingTime:vector ETV
attr interpolationmode none
attr source queueingTime(packetPopped)
attr title "queueing times, vector"
attr unit s
vector 101 XHost_SpineLeaf_Network.leaf[0].H[1].eth[0].mac packetReceivedFromUpper:vector(packetBytes) ETV
attr interpolationmode none
attr source packetReceivedFromUpper
attr title "packet bytes from higher layer, vector(packetBytes)"
vector 102 XHost_SpineLeaf_Network.leaf[0].H[1].eth[0].mac.queue packetPushed:vector(packetBytes) ETV
attr interpolationmode none
attr title "packet pushed, vector(packetBytes)"
vector 103 XHost_SpineLeaf_Network.leaf[0].H[1].eth[0].mac.queue queueLength:vector ETV
attr interpolationmode sample-hold
attr source "count(packetPushed) - count(packetPopped) - count(packetRemoved) - count(packetDropped)"
attr title "queue length, vector"
vector 104 XHost_SpineLeaf_Network.leaf[0].H[1].eth[0].mac.queue packetPopped:vector(packetBytes) ETV
attr interpolationmode none
attr title "packet popped, vector(packetBytes)"
vector 105 XHost_SpineLeaf_Network.leaf[0].H[1].eth[0].mac.queue queueingTime:vector ETV
attr interpolationmode none
attr source queueingTime(packetPopped)
attr title "queueing times, vector"
attr unit s
vector 106 XHost_SpineLeaf_Network.leaf[1].H[0].eth[0].mac packetReceivedFromUpper:vector(packetBytes) ETV
attr interpolationmode none
attr source packetReceivedFromUpper
attr title "packet bytes from higher layer, vector(packetBytes)"
vector 107 XHost_SpineLeaf_Network.leaf[1].H[0].eth[0].mac.queue packetPushed:vector(packetBytes) ETV
attr interpolationmode none
attr title "packet pushed, vector(packetBytes)"
vector 108 XHost_SpineLeaf_Network.leaf[1].H[0].eth[0].mac.queue queueLength:vector ETV
attr interpolationmode sample-hold
attr source "count(packetPushed) - count(packetPopped) - count(packetRemoved) - count(packetDropped)"
attr title "queue length, vector"
vector 109 XHost_SpineLeaf_Network.leaf[1].H[0].eth[0].mac.queue packetPopped:vector(packetBytes) ETV
attr interpolationmode none
attr title "packet popped, vector(packetBytes)"
vector 110 XHost_SpineLeaf_Network.leaf[1].H[0].eth[0].mac.queue queueingTime:vector ETV
attr interpolationmode none
attr source queueingTime(packetPopped)
attr title "queueing times, vector"
attr unit s
vector 111 XHost_SpineLeaf_Network.leaf[1].H[1].eth[0].mac packetReceivedFromUpper:vector(packetBytes) ETV
attr interpolationmode none
attr source packetReceivedFromUpper
attr title "packet bytes from higher layer, vector(packetBytes)"
vector 112 XHost_SpineLeaf_Network.leaf[1].H[1].eth[0].mac.queue packetPushed:vector(packetBytes) ETV
attr interpolationmode none
attr title "packet pushed, vector(packetBytes)"
vector 113 XHost_SpineLeaf_Network.leaf[1].H[1].eth[0].mac.queue queueLength:vector ETV
attr interpolationmode sample-hold
attr source "count(packetPushed) - count(packetPopped) - count(packetRemoved) - count(packetDropped)"
attr title "queue length, vector"
vector 114 XHost_SpineLeaf_Network.leaf[1].H[1].eth[0].mac.queue packetPopped:vector(packetBytes) ETV
attr interpolationmode none
attr title "packet popped, vector(packetBytes)"
vector 115 XHost_SpineLeaf_Network.leaf[1].H[1].eth[0].mac.queue queueingTime:vector ETV
attr interpolationmode none
attr source queueingTime(packetPopped)
attr title "queueing times, vector"
attr unit s
vector 116 XHost_SpineLeaf_Network.leaf[2].H[0].eth[0].mac packetReceivedFromUpper:vector(packetBytes) ETV
attr interpolationmode none
attr source packetReceivedFromUpper
attr title "packet bytes from higher layer, vector(packetBytes)"
vector 117 XHost_SpineLeaf_Network.leaf[2].H[0].eth[0].mac.queue packetPushed:vector(packetBytes) ETV
attr interpolationmode none
attr title "packet pushed, vector(packetBytes)"
vector 118 XHost_SpineLeaf_Network.leaf[2].H[0].eth[0].mac.queue queueLength:vector ETV
attr interpolationmode sample-hold
attr source "count(packetPushed) - count(packetPopped) - count(packetRemoved) - count(packetDropped)"
attr title "queue length, vector"
vector 119 XHost_SpineLeaf_Network.leaf[2].H[0].eth[0].mac.queue packetPopped:vector(packetBytes) ETV
attr interpolationmode none
attr title "packet popped, vector(packetBytes)"
vector 120 XHost_SpineLeaf_Network.leaf[2].H[0].eth[0].mac.queue queueingTime:vector ETV
attr interpolationmode none
attr source queueingTime(packetPopped)
attr title "queueing times, vector"
attr unit s
vector 121 XHost_SpineLeaf_Network.leaf[2].H[1].eth[0].mac packetReceivedFromUpper:vector(packetBytes) ETV
attr interpolationmode none
attr source packetReceivedFromUpper
attr title "packet bytes from higher layer, vector(packetBytes)"
vector 122 XHost_SpineLeaf_Network.leaf[2].H[1].eth[0].mac.queue packetPushed:vector(packetBytes) ETV
attr interpolationmode none
attr title "packet pushed, vector(packetBytes)"
vector 123 XHost_SpineLeaf_Network.leaf[2].H[1].eth[0].mac.queue queueLength:vector ETV
attr interpolationmode sample-hold
attr source "count(packetPushed) - count(packetPopped) - count(packetRemoved) - count(packetDropped)"
attr title "queue length, vector"
vector 124 XHost_SpineLeaf_Network.leaf[2].H[1].eth[0].mac.queue packetPopped:vector(packetBytes) ETV
attr interpolationmode none
attr title "packet popped, vector(packetBytes)"
vector 125 XHost_SpineLeaf_Network.leaf[2].H[1].eth[0].mac.queue queueingTime:vector ETV
attr interpolationmode none
attr source queueingTime(packetPopped)
attr title "queueing times, vector"
attr unit s
vector 126 XHost_SpineLeaf_Network.leaf[3].H[0].eth[0].mac packetReceivedFromUpper:vector(packetBytes) ETV
attr interpolationmode none
attr source packetReceivedFromUpper
attr title "packet bytes from higher layer, vector(packetBytes)"
vector 127 XHost_SpineLeaf_Network.leaf[3].H[0].eth[0].mac.queue packetPushed:vector(packetBytes) ETV
attr interpolationmode none
attr title "packet pushed, vector(packetBytes)"
vector 128 XHost_SpineLeaf_Network.leaf[3].H[0].eth[0].mac.queue queueLength:vector ETV
attr interpolationmode sample-hold
attr source "count(packetPushed) - count(packetPopped) - count(packetRemoved) - count(packetDropped)"
attr title "queue length, vector"
vector 129 XHost_SpineLeaf_Network.leaf[3].H[0].eth[0].mac.queue packetPopped:vector(packetBytes) ETV
attr interpolationmode none
attr title "packet popped, vector(packetBytes)"
vector 130 XHost_SpineLeaf_Network.leaf[3].H[0].eth[0].mac.queue queueingTime:vector ETV
attr interpolationmode none
attr source queueingTime(packetPopped)
attr title "queueing times, vector"
attr unit s
vector 131 XHost_SpineLeaf_Network.leaf[3].H[1].eth[0].mac packetReceivedFromUpper:vector(packetBytes) ETV
attr interpolationmode none
attr source packetReceivedFromUpper
attr title "packet bytes from higher layer, vector(packetBytes)"
vector 132 XHost_SpineLeaf_Network.leaf[3].H[1].eth[0].mac.queue packetPushed:vector(packetBytes) ETV
attr interpolationmode none
attr title "packet pushed, vector(packetBytes)"
vector 133 XHost_SpineLeaf_Network.leaf[3].H[1].eth[0].mac.queue queueLength:vector ETV
attr interpolationmode sample-hold
attr source "count(packetPushed) - count(packetPopped) - count(packetRemoved) - count(packetDropped)"
attr title "queue length, vector"
vector 134 XHost_SpineLeaf_Network.leaf[3].H[1].eth[0].mac.queue packetPopped:vector(packetBytes) ETV
attr interpolationmode none
attr title "packet popped, vector(packetBytes)"
vector 135 XHost_SpineLeaf_Network.leaf[3].H[1].eth[0].mac.queue queueingTime:vector ETV
attr interpolationmode none
attr source queueingTime(packetPopped)
attr title "queueing times, vector"
attr unit s
vector 136 XHost_SpineLeaf_Network.leaf[4].H[0].eth[0].mac packetReceivedFromUpper:vector(packetBytes) ETV
attr interpolationmode none
attr source packetReceivedFromUpper
attr title "packet bytes from higher layer, vector(packetBytes)"
vector 137 XHost_SpineLeaf_Network.leaf[4].H[0].eth[0].mac.queue packetPushed:vector(packetBytes) ETV
attr interpolationmode none
attr title "packet pushed, vector(packetBytes)"
vector 138 XHost_SpineLeaf_Network.leaf[4].H[0].eth[0].mac.queue queueLength:vector ETV
attr interpolationmode sample-hold
attr source "count(packetPushed) - count(packetPopped) - count(packetRemoved) - count(packetDropped)"
attr title "queue length, vector"
vector 139 XHost_SpineLeaf_Network.leaf[4].H[0].eth[0].mac.queue packetPopped:vector(packetBytes) ETV
attr interpolationmode none
attr title "packet popped, vector(packetBytes)"
vector 140 XHost_SpineLeaf_Network.leaf[4].H[0].eth[0].mac.queue queueingTime:vector ETV
attr interpolationmode none
attr source queueingTime(packetPopped)
attr title "queueing times, vector"
attr unit s
vector 141 XHost_SpineLeaf_Network.leaf[4].H[1].eth[0].mac packetReceivedFromUpper:vector(packetBytes) ETV
attr interpolationmode none
attr source packetReceivedFromUpper
attr title "packet bytes from higher layer, vector(packetBytes)"
vector 142 XHost_SpineLeaf_Network.leaf[4].H[1].eth[0].mac.queue packetPushed:vector(packetBytes) ETV
attr interpolationmode none
attr title "packet pushed, vector(packetBytes)"
vector 143 XHost_SpineLeaf_Network.leaf[4].H[1].eth[0].mac.queue queueLength:vector ETV
attr interpolationmode sample-hold
attr source "count(packetPushed) - count(packetPopped) - count(packetRemoved) - count(packetDropped)"
attr title "queue length, vector"
vector 144 XHost_SpineLeaf_Network.leaf[4].H[1].eth[0].mac.queue packetPopped:vector(packetBytes) ETV
attr interpolationmode none
attr title "packet popped, vector(packetBytes)"
vector 145 XHost_SpineLeaf_Network.leaf[4].H[1].eth[0].mac.queue queueingTime:vector ETV
attr interpolationmode none
attr source queueingTime(packetPopped)
attr title "queueing times, vector"
attr unit s
vector 146 XHost_SpineLeaf_Network.leaf[5].H[0].eth[0].mac packetReceivedFromUpper:vector(packetBytes) ETV
attr interpolationmode none
attr source packetReceivedFromUpper
attr title "packet bytes from higher layer, vector(packetBytes)"
vector 147 XHost_SpineLeaf_Network.leaf[5].H[0].eth[0].mac.queue packetPushed:vector(packetBytes) ETV
attr interpolationmode none
attr title "packet pushed, vector(packetBytes)"
vector 148 XHost_SpineLeaf_Network.leaf[5].H[0].eth[0].mac.queue queueLength:vector ETV
attr interpolationmode sample-hold
attr source "count(packetPushed) - count(packetPopped) - count(packetRemoved) - count(packetDropped)"
attr title "queue length, vector"
vector 149 XHost_SpineLeaf_Network.leaf[5].H[0].eth[0].mac.queue packetPopped:vector(packetBytes) ETV
attr interpolationmode none
attr title "packet popped, vector(packetBytes)"
vector 150 XHost_SpineLeaf_Network.leaf[5].H[0].eth[0].mac.queue queueingTime:vector ETV
attr interpolationmode none
attr source queueingTime(packetPopped)
attr title "queueing times, vector"
attr unit s
vector 151 XHost_SpineLeaf_Network.leaf[5].H[1].eth[0].mac packetReceivedFromUpper:vector(packetBytes) ETV
attr interpolationmode none
attr source packetReceivedFromUpper
attr title "packet bytes from higher layer, vector(packetBytes)"
vector 152 XHost_SpineLeaf_Network.leaf[5].H[1].eth[0].mac.queue packetPushed:vector(packetBytes) ETV
attr interpolationmode none
attr title "packet pushed, vector(packetBytes)"
vector 153 XHost_SpineLeaf_Network.leaf[5].H[1].eth[0].mac.queue queueLength:vector ETV
attr interpolationmode sample-hold
attr source "count(packetPushed) - count(packetPopped) - count(packetRemoved) - count(packetDropped)"
attr title "queue length, vector"
vector 154 XHost_SpineLeaf_Network.leaf[5].H[1].eth[0].mac.queue packetPopped:vector(packetBytes) ETV
attr interpolationmode none
attr title "packet popped, vector(packetBytes)"
vector 155 XHost_SpineLeaf_Network.leaf[5].H[1].eth[0].mac.queue queueingTime:vector ETV
attr interpolationmode none
attr source queueingTime(packetPopped)
attr title "queueing times, vector"
attr unit s
vector 156 XHost_SpineLeaf_Network.leaf[6].H[0].eth[0].mac packetReceivedFromUpper:vector(packetBytes) ETV
attr interpolationmode none
attr source packetReceivedFromUpper
attr title "packet bytes from higher layer, vector(packetBytes)"
vector 157 XHost_SpineLeaf_Network.leaf[6].H[0].eth[0].mac.queue packetPushed:vector(packetBytes) ETV
attr interpolationmode none
attr title "packet pushed, vector(packetBytes)"
vector 158 XHost_SpineLeaf_Network.leaf[6].H[0].eth[0].mac.queue queueLength:vector ETV
attr interpolationmode sample-hold
attr source "count(packetPushed) - count(packetPopped) - count(packetRemoved) - count(packetDropped)"
attr title "queue length, vector"
vector 159 XHost_SpineLeaf_Network.leaf[6].H[0].eth[0].mac.queue packetPopped:vector(packetBytes) ETV
attr interpolationmode none
attr title "packet popped, vector(packetBytes)"
vector 160 XHost_SpineLeaf_Network.leaf[6].H[0].eth[0].mac.queue queueingTime:vector ETV
attr interpolationmode none
attr source queueingTime(packetPopped)
attr title "queueing times, vector"
attr unit s
vector 161 XHost_SpineLeaf_Network.leaf[6].H[1].eth[0].mac packetReceivedFromUpper:vector(packetBytes) ETV
attr interpolationmode none
attr source packetReceivedFromUpper
attr title "packet bytes from higher layer, vector(packetBytes)"
vector 162 XHost_SpineLeaf_Network.leaf[6].H[1].eth[0].mac.queue packetPushed:vector(packetBytes) ETV
attr interpolationmode none
attr title "packet pushed, vector(packetBytes)"
vector 163 XHost_SpineLeaf_Network.leaf[6].H[1].eth[0].mac.queue queueLength:vector ETV
attr interpolationmode sample-hold
attr source "count(packetPushed) - count(packetPopped) - count(packetRemoved) - count(packetDropped)"
attr title "queue length, vector"
vector 164 XHost_SpineLeaf_Network.leaf[6].H[1].eth[0].mac.queue packetPopped:vector(packetBytes) ETV
attr interpolationmode none
attr title "packet popped, vector(packetBytes)"
vector 165 XHost_SpineLeaf_Network.leaf[6].H[1].eth[0].mac.queue queueingTime:vector ETV
attr interpolationmode none
attr source queueingTime(packetPopped)
attr title "queueing times, vector"
attr unit s
vector 166 XHost_SpineLeaf_Network.leaf[7].H[0].eth[0].mac packetReceivedFromUpper:vector(packetBytes) ETV
attr interpolationmode none
attr source packetReceivedFromUpper
attr title "packet bytes from higher layer, vector(packetBytes)"
vector 167 XHost_SpineLeaf_Network.leaf[7].H[0].eth[0].mac.queue packetPushed:vector(packetBytes) ETV
attr interpolationmode none
attr title "packet pushed, vector(packetBytes)"
vector 168 XHost_SpineLeaf_Network.leaf[7].H[0].eth[0].mac.queue queueLength:vector ETV
attr interpolationmode sample-hold
attr source "count(packetPushed) - count(packetPopped) - count(packetRemoved) - count(packetDropped)"
attr title "queue length, vector"
vector 169 XHost_SpineLeaf_Network.leaf[7].H[0].eth[0].mac.queue packetPopped:vector(packetBytes) ETV
attr interpolationmode none
attr title "packet popped, vector(packetBytes)"
vector 170 XHost_SpineLeaf_Network.leaf[7].H[0].eth[0].mac.queue queueingTime:vector ETV
attr interpolationmode none
attr source queueingTime(packetPopped)
attr title "queueing times, vector"
attr unit s
vector 171 XHost_SpineLeaf_Network.leaf[7].H[1].eth[0].mac packetReceivedFromUpper:vector(packetBytes) ETV
attr interpolationmode none
attr source packetReceivedFromUpper
attr title "packet bytes from higher layer, vector(packetBytes)"
vector 172 XHost_SpineLeaf_Network.leaf[7].H[1].eth[0].mac.queue packetPushed:vector(packetBytes) ETV
attr interpolationmode none
attr title "packet pushed, vector(packetBytes)"
vector 173 XHost_SpineLeaf_Network.leaf[7].H[1].eth[0].mac.queue queueLength:vector ETV
attr interpolationmode sample-hold
attr source "count(packetPushed) - count(packetPopped) - count(packetRemoved) - count(packetDropped)"
attr title "queue length, vector"
vector 174 XHost_SpineLeaf_Network.leaf[7].H[1].eth[0].mac.queue packetPopped:vector(packetBytes) ETV
attr interpolationmode none
attr title "packet popped, vector(packetBytes)"
vector 175 XHost_SpineLeaf_Network.leaf[7].H[1].eth[0].mac.queue queueingTime:vector ETV
attr interpolationmode none
attr source queueingTime(packetPopped)
attr title "queueing times, vector"
attr unit s
vector 176 XHost_SpineLeaf_Network.leaf[0].H[0].eth[0].mac txPk:vector(packetBytes) ETV
attr interpolationmode none
attr source packetSentToLower
attr title "packets transmitted, vector(packetBytes)"
vector 177 XHost_SpineLeaf_Network.leaf[0].H[1].eth[0].mac txPk:vector(packetBytes) ETV
attr interpolationmode none
attr source packetSentToLower
attr title "packets transmitted, vector(packetBytes)"
vector 178 XHost_SpineLeaf_Network.leaf[1].H[0].eth[0].mac txPk:vector(packetBytes) ETV
attr interpolationmode none
attr source packetSentToLower
attr title "packets transmitted, vector(packetBytes)"
vector 179 XHost_SpineLeaf_Network.leaf[1].H[1].eth[0].mac txPk:vector(packetBytes) ETV
attr interpolationmode none
attr source packetSentToLower
attr title "packets transmitted, vector(packetBytes)"
vector 180 XHost_SpineLeaf_Network.leaf[2].H[0].eth[0].mac txPk:vector(packetBytes) ETV
attr interpolationmode none
attr source packetSentToLower
attr title "packets transmitted, vector(packetBytes)"
vector 181 XHost_SpineLeaf_Network.leaf[2].H[1].eth[0].mac txPk:vector(packetBytes) ETV
attr interpolationmode none
attr source packetSentToLower
attr title "packets transmitted, vector(packetBytes)"
vector 182 XHost_SpineLeaf_Network.leaf[3].H[0].eth[0].mac txPk:vector(packetBytes) ETV
attr interpolationmode none
attr source packetSentToLower
attr title "packets transmitted, vector(packetBytes)"
vector 183 XHost_SpineLeaf_Network.leaf[3].H[1].eth[0].mac txPk:vector(packetBytes) ETV
attr interpolationmode none
attr source packetSentToLower
attr title "packets transmitted, vector(packetBytes)"
vector 184 XHost_SpineLeaf_Network.leaf[4].H[0].eth[0].mac txPk:vector(packetBytes) ETV
attr interpolationmode none
attr source packetSentToLower
attr title "packets transmitted, vector(packetBytes)"
vector 185 XHost_SpineLeaf_Network.leaf[4].H[1].eth[0].mac txPk:vector(packetBytes) ETV
attr interpolationmode none
attr source packetSentToLower
attr title "packets transmitted, vector(packetBytes)"
vector 186 XHost_SpineLeaf_Network.leaf[5].H[0].eth[0].mac txPk:vector(packetBytes) ETV
attr interpolationmode none
attr source packetSentToLower
attr title "packets transmitted, vector(packetBytes)"
vector 187 XHost_SpineLeaf_Network.leaf[5].H[1].eth[0].mac txPk:vector(packetBytes) ETV
attr interpolationmode none
attr source packetSentToLower
attr title "packets transmitted, vector(packetBytes)"
vector 188 XHost_SpineLeaf_Network.leaf[6].H[0].eth[0].mac txPk:vector(packetBytes) ETV
attr interpolationmode none
attr source packetSentToLower
attr title "packets transmitted, vector(packetBytes)"
vector 189 XHost_SpineLeaf_Network.leaf[6].H[1].eth[0].mac txPk:vector(packetBytes) ETV
attr interpolationmode none
attr source packetSentToLower
attr title "packets transmitted, vector(packetBytes)"
vector 190 XHost_SpineLeaf_Network.leaf[7].H[0].eth[0].mac txPk:vector(packetBytes) ETV
attr interpolationmode none
attr source packetSentToLower
attr title "packets transmitted, vector(packetBytes)"
vector 191 XHost_SpineLeaf_Network.leaf[7].H[1].eth[0].mac txPk:vector(packetBytes) ETV
attr interpolationmode none
attr source packetSentToLower
attr title "packets transmitted, vector(packetBytes)"
vector 192 XHost_SpineLeaf_Network.leaf[0].topOfRack.eth[5].mac rxPkOk:vector(packetBytes) ETV
attr interpolationmode none
attr source rxPkOk
attr title "packets received OK, vector(packetBytes)"
vector 193 XHost_SpineLeaf_Network.leaf[0].topOfRack.eth[5].mac passedUpPk:vector(packetBytes) ETV
attr interpolationmode none
attr source packetSentToUpper
attr title "packets passed to higher layer, vector(packetBytes)"
vector 194 XHost_SpineLeaf_Network.leaf[0].topOfRack.eth[6].mac rxPkOk:vector(packetBytes) ETV
attr interpolationmode none
attr source rxPkOk
attr title "packets received OK, vector(packetBytes)"
vector 195 XHost_SpineLeaf_Network.leaf[0].topOfRack.eth[6].mac passedUpPk:vector(packetBytes) ETV
attr interpolationmode none
attr source packetSentToUpper
attr title "packets passed to higher layer, vector(packetBytes)"
vector 196 XHost_SpineLeaf_Network.leaf[1].topOfRack.eth[5].mac rxPkOk:vector(packetBytes) ETV
attr interpolationmode none
attr source rxPkOk
attr title "packets received OK, vector(packetBytes)"
vector 197 XHost_SpineLeaf_Network.leaf[1].topOfRack.eth[5].mac passedUpPk:vector(packetBytes) ETV
attr interpolationmode none
attr source packetSentToUpper
attr title "packets passed to higher layer, vector(packetBytes)"
vector 198 XHost_SpineLeaf_Network.leaf[1].topOfRack.eth[6].mac rxPkOk:vector(packetBytes) ETV
attr interpolationmode none
attr source rxPkOk
attr title "packets received OK, vector(packetBytes)"
vector 199 XHost_SpineLeaf_Network.leaf[1].topOfRack.eth[6].mac passedUpPk:vector(packetBytes) ETV
attr interpolationmode none
attr source packetSentToUpper
attr title "packets passed to higher layer, vector(packetBytes)"
vector 200 XHost_SpineLeaf_Network.leaf[2].topOfRack.eth[5].mac rxPkOk:vector(packetBytes) ETV
attr interpolationmode none
attr source rxPkOk
attr title "packets received OK, vector(packetBytes)"
vector 201 XHost_SpineLeaf_Network.leaf[2].topOfRack.eth[5].mac passedUpPk:vector(packetBytes) ETV
attr interpolationmode none
attr source packetSentToUpper
attr title "packets passed to higher layer, vector(packetBytes)"
vector 202 XHost_SpineLeaf_Network.leaf[2].topOfRack.eth[6].mac rxPkOk:vector(packetBytes) ETV
attr interpolationmode none
attr source rxPkOk
attr title "packets received OK, vector(packetBytes)"
vector 203 XHost_SpineLeaf_Network.leaf[2].topOfRack.eth[6].mac passedUpPk:vector(packetBytes) ETV
attr interpolationmode none
attr source packetSentToUpper
attr title "packets passed to higher layer, vector(packetBytes)"
vector 204 XHost_SpineLeaf_Network.leaf[3].topOfRack.eth[5].mac rxPkOk:vector(packetBytes) ETV
attr interpolationmode none
attr source rxPkOk
attr title "packets received OK, vector(packetBytes)"
vector 205 XHost_SpineLeaf_Network.leaf[3].topOfRack.eth[5].mac passedUpPk:vector(packetBytes) ETV
attr interpolationmode none
attr source packetSentToUpper
attr title "packets passed to higher layer, vector(packetBytes)"
vector 206 XHost_SpineLeaf_Network.leaf[3].topOfRack.eth[6].mac rxPkOk:vector(packetBytes) ETV
attr interpolationmode none
attr source rxPkOk
attr title "packets received OK, vector(packetBytes)"
vector 207 XHost_SpineLeaf_Network.leaf[3].topOfRack.eth[6].mac passedUpPk:vector(packetBytes) ETV
attr interpolationmode none
attr source packetSentToUpper
attr title "packets passed to higher layer, vector(packetBytes)"
vector 208 XHost_SpineLeaf_Network.leaf[4].topOfRack.eth[5].mac rxPkOk:vector(packetBytes) ETV
attr interpolationmode none
attr source rxPkOk
attr title "packets received OK, vector(packetBytes)"
vector 209 XHost_SpineLeaf_Network.leaf[4].topOfRack.eth[5].mac passedUpPk:vector(packetBytes) ETV
attr interpolationmode none
attr source packetSentToUpper
attr title "packets passed to higher layer, vector(packetBytes)"
vector 210 XHost_SpineLeaf_Network.leaf[4].topOfRack.eth[6].mac rxPkOk:vector(packetBytes) ETV
attr interpolationmode none
attr source rxPkOk
attr title "packets received OK, vector(packetBytes)"
vector 211 XHost_SpineLeaf_Network.leaf[4].topOfRack.eth[6].mac passedUpPk:vector(packetBytes) ETV
attr interpolationmode none
attr source packetSentToUpper
attr title "packets passed to higher layer, vector(packetBytes)"
vector 212 XHost_SpineLeaf_Network.leaf[5].topOfRack.eth[5].mac rxPkOk:vector(packetBytes) ETV
attr interpolationmode none
attr source rxPkOk
attr title "packets received OK, vector(packetBytes)"
vector 213 XHost_SpineLeaf_Network.leaf[5].topOfRack.eth[5].mac passedUpPk:vector(packetBytes) ETV
attr interpolationmode none
attr source packetSentToUpper
attr title "packets passed to higher layer, vector(packetBytes)"
vector 214 XHost_SpineLeaf_Network.leaf[5].topOfRack.eth[6].mac rxPkOk:vector(packetBytes) ETV
attr interpolationmode none
attr source rxPkOk
attr title "packets received OK, vector(packetBytes)"
vector 215 XHost_SpineLeaf_Network.leaf[5].topOfRack.eth[6].mac passedUpPk:vector(packetBytes) ETV
attr interpolationmode none
attr source packetSentToUpper
attr title "packets passed to higher layer, vector(packetBytes)"
vector 216 XHost_SpineLeaf_Network.leaf[6].topOfRack.eth[5].mac rxPkOk:vector(packetBytes) ETV
attr interpolationmode none
attr source rxPkOk
attr title "packets received OK, vector(packetBytes)"
vector 217 XHost_SpineLeaf_Network.leaf[6].topOfRack.eth[5].mac passedUpPk:vector(packetBytes) ETV
attr interpolationmode none
attr source packetSentToUpper
attr title "packets passed to higher layer, vector(packetBytes)"
vector 218 XHost_SpineLeaf_Network.leaf[6].topOfRack.eth[6].mac rxPkOk:vector(packetBytes) ETV
attr interpolationmode none
attr source rxPkOk
attr title "packets received OK, vector(packetBytes)"
vector 219 XHost_SpineLeaf_Network.leaf[6].topOfRack.eth[6].mac passedUpPk:vector(packetBytes) ETV
attr interpolationmode none
attr source packetSentToUpper
attr title "packets passed to higher layer, vector(packetBytes)"
vector 220 XHost_SpineLeaf_Network.leaf[7].topOfRack.eth[5].mac rxPkOk:vector(packetBytes) ETV
attr interpolationmode none
attr source rxPkOk
attr title "packets received OK, vector(packetBytes)"
vector 221 XHost_SpineLeaf_Network.leaf[7].topOfRack.eth[5].mac passedUpPk:vector(packetBytes) ETV
attr interpolationmode none
attr source packetSentToUpper
attr title "packets passed to higher layer, vector(packetBytes)"
vector 222 XHost_SpineLeaf_Network.leaf[7].topOfRack.eth[6].mac rxPkOk:vector(packetBytes) ETV
attr interpolationmode none
attr source rxPkOk
attr title "packets received OK, vector(packetBytes)"
vector 223 XHost_SpineLeaf_Network.leaf[7].topOfRack.eth[6].mac passedUpPk:vector(packetBytes) ETV
attr interpolationmode none
attr source packetSentToUpper
attr title "packets passed to higher layer, vector(packetBytes)"
vector 224 XHost_SpineLeaf_Network.leaf[0].topOfRack.eth[5].encap decapPk:vector(packetBytes) ETV
attr interpolationmode none
attr source decapPk
attr title "packets decapsulated, vector(packetBytes)"
vector 225 XHost_SpineLeaf_Network.leaf[0].topOfRack.eth[6].encap decapPk:vector(packetBytes) ETV
attr interpolationmode none
attr source decapPk
attr title "packets decapsulated, vector(packetBytes)"
vector 226 XHost_SpineLeaf_Network.leaf[1].topOfRack.eth[5].encap decapPk:vector(packetBytes) ETV
attr interpolationmode none
attr source decapPk
attr title "packets decapsulated, vector(packetBytes)"
vector 227 XHost_SpineLeaf_Network.leaf[1].topOfRack.eth[6].encap decapPk:vector(packetBytes) ETV
attr interpolationmode none
attr source decapPk
attr title "packets decapsulated, vector(packetBytes)"
vector 228 XHost_SpineLeaf_Network.leaf[2].topOfRack.eth[5].encap decapPk:vector(packetBytes) ETV
attr interpolationmode none
attr source decapPk
attr title "packets decapsulated, vector(packetBytes)"
vector 229 XHost_SpineLeaf_Network.leaf[2].topOfRack.eth[6].encap decapPk:vector(packetBytes) ETV
attr interpolationmode none
attr source decapPk
attr title "packets decapsulated, vector(packetBytes)"
vector 230 XHost_SpineLeaf_Network.leaf[3].topOfRack.eth[5].encap decapPk:vector(packetBytes) ETV
attr interpolationmode none
attr source decapPk
attr title "packets decapsulated, vector(packetBytes)"
vector 231 XHost_SpineLeaf_Network.leaf[3].topOfRack.eth[6].encap decapPk:vector(packetBytes) ETV
attr interpolationmode none
attr source decapPk
attr title "packets decapsulated, vector(packetBytes)"
vector 232 XHost_SpineLeaf_Network.leaf[4].topOfRack.eth[5].encap decapPk:vector(packetBytes) ETV
attr interpolationmode none
attr source decapPk
attr title "packets decapsulated, vector(packetBytes)"
vector 233 XHost_SpineLeaf_Network.leaf[4].topOfRack.eth[6].encap decapPk:vector(packetBytes) ETV
attr interpolationmode none
attr source decapPk
attr title "packets decapsulated, vector(packetBytes)"
vector 234 XHost_SpineLeaf_Network.leaf[5].topOfRack.eth[5].encap decapPk:vector(packetBytes) ETV
attr interpolationmode none
attr source decapPk
attr title "packets decapsulated, vector(packetBytes)"
vector 235 XHost_SpineLeaf_Network.leaf[5].topOfRack.eth[6].encap decapPk:vector(packetBytes) ETV
attr interpolationmode none
attr source decapPk
attr title "packets decapsulated, vector(packetBytes)"
vector 236 XHost_SpineLeaf_Network.leaf[6].topOfRack.eth[5].encap decapPk:vector(packetBytes) ETV
attr interpolationmode none
attr source decapPk
attr title "packets decapsulated, vector(packetBytes)"
vector 237 XHost_SpineLeaf_Network.leaf[6].topOfRack.eth[6].encap decapPk:vector(packetBytes) ETV
attr interpolationmode none
attr source decapPk
attr title "packets decapsulated, vector(packetBytes)"
vector 238 XHost_SpineLeaf_Network.leaf[7].topOfRack.eth[5].encap decapPk:vector(packetBytes) ETV
attr interpolationmode none
attr source decapPk
attr title "packets decapsulated, vector(packetBytes)"
vector 239 XHost_SpineLeaf_Network.leaf[7].topOfRack.eth[6].encap decapPk:vector(packetBytes) ETV
attr interpolationmode none
attr source decapPk
attr title "packets decapsulated, vector(packetBytes)"
vector 240 XHost_SpineLeaf_Network.leaf[0].topOfRack.ipv4.arp arpReplySent:vector(packetBytes) ETV
attr source arpReplySent
attr title "ARP replies sent, vector(packetBytes)"
vector 241 XHost_SpineLeaf_Network.leaf[1].topOfRack.ipv4.arp arpReplySent:vector(packetBytes) ETV
attr source arpReplySent
attr title "ARP replies sent, vector(packetBytes)"
vector 242 XHost_SpineLeaf_Network.leaf[2].topOfRack.ipv4.arp arpReplySent:vector(packetBytes) ETV
attr source arpReplySent
attr title "ARP replies sent, vector(packetBytes)"
vector 243 XHost_SpineLeaf_Network.leaf[3].topOfRack.ipv4.arp arpReplySent:vector(packetBytes) ETV
attr source arpReplySent
attr title "ARP replies sent, vector(packetBytes)"
vector 244 XHost_SpineLeaf_Network.leaf[4].topOfRack.ipv4.arp arpReplySent:vector(packetBytes) ETV
attr source arpReplySent
attr title "ARP replies sent, vector(packetBytes)"
vector 245 XHost_SpineLeaf_Network.leaf[5].topOfRack.ipv4.arp arpReplySent:vector(packetBytes) ETV
attr source arpReplySent
attr title "ARP replies sent, vector(packetBytes)"
vector 246 XHost_SpineLeaf_Network.leaf[6].topOfRack.ipv4.arp arpReplySent:vector(packetBytes) ETV
attr source arpReplySent
attr title "ARP replies sent, vector(packetBytes)"
vector 247 XHost_SpineLeaf_Network.leaf[7].topOfRack.ipv4.arp arpReplySent:vector(packetBytes) ETV
attr source arpReplySent
attr title "ARP replies sent, vector(packetBytes)"
vector 248 XHost_SpineLeaf_Network.leaf[0].topOfRack.eth[5].encap encapPk:vector(packetBytes) ETV
attr interpolationmode none
attr source encapPk
attr title "packets encapsulated, vector(packetBytes)"
vector 249 XHost_SpineLeaf_Network.leaf[0].topOfRack.eth[6].encap encapPk:vector(packetBytes) ETV
attr interpolationmode none
attr source encapPk
attr title "packets encapsulated, vector(packetBytes)"
vector 250 XHost_SpineLeaf_Network.leaf[1].topOfRack.eth[5].encap encapPk:vector(packetBytes) ETV
attr interpolationmode none
attr source encapPk
attr title "packets encapsulated, vector(packetBytes)"
vector 251 XHost_SpineLeaf_Network.leaf[1].topOfRack.eth[6].encap encapPk:vector(packetBytes) ETV
attr interpolationmode none
attr source encapPk
attr title "packets encapsulated, vector(packetBytes)"
vector 252 XHost_SpineLeaf_Network.leaf[2].topOfRack.eth[5].encap encapPk:vector(packetBytes) ETV
attr interpolationmode none
attr source encapPk
attr title "packets encapsulated, vector(packetBytes)"
vector 253 XHost_SpineLeaf_Network.leaf[2].topOfRack.eth[6].encap encapPk:vector(packetBytes) ETV
attr interpolationmode none
attr source encapPk
attr title "packets encapsulated, vector(packetBytes)"
vector 254 XHost_SpineLeaf_Network.leaf[3].topOfRack.eth[5].encap encapPk:vector(packetBytes) ETV
attr interpolationmode none
attr source encapPk
attr title "packets encapsulated, vector(packetBytes)"
vector 255 XHost_SpineLeaf_Network.leaf[3].topOfRack.eth[6].encap encapPk:vector(packetBytes) ETV
attr interpolationmode none
attr source encapPk
attr title "packets encapsulated, vector(packetBytes)"
vector 256 XHost_SpineLeaf_Network.leaf[4].topOfRack.eth[5].encap encapPk:vector(packetBytes) ETV
attr interpolationmode none
attr source encapPk
attr title "packets encapsulated, vector(packetBytes)"
vector 257 XHost_SpineLeaf_Network.leaf[4].topOfRack.eth[6].encap encapPk:vector(packetBytes) ETV
attr interpolationmode none
attr source encapPk
attr title "packets encapsulated, vector(packetBytes)"
vector 258 XHost_SpineLeaf_Network.leaf[5].topOfRack.eth[5].encap encapPk:vector(packetBytes) ETV
attr interpolationmode none
attr source encapPk
attr title "packets encapsulated, vector(packetBytes)"
vector 259 XHost_SpineLeaf_Network.leaf[5].topOfRack.eth[6].encap encapPk:vector(packetBytes) ETV
attr interpolationmode none
attr source encapPk
attr title "packets encapsulated, vector(packetBytes)"
vector 260 XHost_SpineLeaf_Network.leaf[6].topOfRack.eth[5].encap encapPk:vector(packetBytes) ETV
attr interpolationmode none
attr source encapPk
attr title "packets encapsulated, vector(packetBytes)"
vector 261 XHost_SpineLeaf_Network.leaf[6].topOfRack.eth[6].encap encapPk:vector(packetBytes) ETV
attr interpolationmode none
attr source encapPk
attr title "packets encapsulated, vector(packetBytes)"
vector 262 XHost_SpineLeaf_Network.leaf[7].topOfRack.eth[5].encap encapPk:vector(packetBytes) ETV
attr interpolationmode none
attr source encapPk
attr title "packets encapsulated, vector(packetBytes)"
vector 263 XHost_SpineLeaf_Network.leaf[7].topOfRack.eth[6].encap encapPk:vector(packetBytes) ETV
attr interpolationmode none
attr source encapPk
attr title "packets encapsulated, vector(packetBytes)"
vector 264 XHost_SpineLeaf_Network.leaf[0].topOfRack.eth[5].mac packetReceivedFromUpper:vector(packetBytes) ETV
attr interpolationmode none
attr source packetReceivedFromUpper
attr title "packet bytes from higher layer, vector(packetBytes)"
vector 265 XHost_SpineLeaf_Network.leaf[0].topOfRack.eth[5].mac.queue packetPushed:vector(packetBytes) ETV
attr interpolationmode none
attr title "packet pushed, vector(packetBytes)"
vector 266 XHost_SpineLeaf_Network.leaf[0].topOfRack.eth[5].mac.queue queueLength:vector ETV
attr interpolationmode sample-hold
attr source "count(packetPushed) - count(packetPopped) - count(packetRemoved) - count(packetDropped)"
attr title "queue length, vector"
vector 267 XHost_SpineLeaf_Network.leaf[0].topOfRack.eth[5].mac.queue packetPopped:vector(packetBytes) ETV
attr interpolationmode none
attr title "packet popped, vector(packetBytes)"
vector 268 XHost_SpineLeaf_Network.leaf[0].topOfRack.eth[5].mac.queue queueingTime:vector ETV
attr interpolationmode none
attr source queueingTime(packetPopped)
attr title "queueing times, vector"
attr unit s
vector 269 XHost_SpineLeaf_Network.leaf[0].topOfRack.eth[6].mac packetReceivedFromUpper:vector(packetBytes) ETV
attr interpolationmode none
attr source packetReceivedFromUpper
attr title "packet bytes from higher layer, vector(packetBytes)"
vector 270 XHost_SpineLeaf_Network.leaf[0].topOfRack.eth[6].mac.queue packetPushed:vector(packetBytes) ETV
attr interpolationmode none
attr title "packet pushed, vector(packetBytes)"
vector 271 XHost_SpineLeaf_Network.leaf[0].topOfRack.eth[6].mac.queue queueLength:vector ETV
attr interpolationmode sample-hold
attr source "count(packetPushed) - count(packetPopped) - count(packetRemoved) - count(packetDropped)"
attr title "queue length, vector"
vector 272 XHost_SpineLeaf_Network.leaf[0].topOfRack.eth[6].mac.queue packetPopped:vector(packetBytes) ETV
attr interpolationmode none
attr title "packet popped, vector(packetBytes)"
vector 273 XHost_SpineLeaf_Network.leaf[0].topOfRack.eth[6].mac.queue queueingTime:vector ETV
attr interpolationmode none
attr source queueingTime(packetPopped)
attr title "queueing times, vector"
attr unit s
vector 274 XHost_SpineLeaf_Network.leaf[1].topOfRack.eth[5].mac packetReceivedFromUpper:vector(packetBytes) ETV
attr interpolationmode none
attr source packetReceivedFromUpper
attr title "packet bytes from higher layer, vector(packetBytes)"
vector 275 XHost_SpineLeaf_Network.leaf[1].topOfRack.eth[5].mac.queue packetPushed:vector(packetBytes) ETV
attr interpolationmode none
attr title "packet pushed, vector(packetBytes)"
vector 276 XHost_SpineLeaf_Network.leaf[1].topOfRack.eth[5].mac.queue queueLength:vector ETV
attr interpolationmode sample-hold
attr source "count(packetPushed) - count(packetPopped) - count(packetRemoved) - count(packetDropped)"
attr title "queue length, vector"
vector 277 XHost_SpineLeaf_Network.leaf[1].topOfRack.eth[5].mac.queue packetPopped:vector(packetBytes) ETV
attr interpolationmode none
attr title "packet popped, vector(packetBytes)"
vector 278 XHost_SpineLeaf_Network.leaf[1].topOfRack.eth[5].mac.queue queueingTime:vector ETV
attr interpolationmode none
attr source queueingTime(packetPopped)
attr title "queueing times, vector"
attr unit s
vector 279 XHost_SpineLeaf_Network.leaf[1].topOfRack.eth[6].mac packetReceivedFromUpper:vector(packetBytes) ETV
attr interpolationmode none
attr source packetReceivedFromUpper
attr title "packet bytes from higher layer, vector(packetBytes)"
vector 280 XHost_SpineLeaf_Network.leaf[1].topOfRack.eth[6].mac.queue packetPushed:vector(packetBytes) ETV
attr interpolationmode none
attr title "packet pushed, vector(packetBytes)"
vector 281 XHost_SpineLeaf_Network.leaf[1].topOfRack.eth[6].mac.queue queueLength:vector ETV
attr interpolationmode sample-hold
attr source "count(packetPushed) - count(packetPopped) - count(packetRemoved) - count(packetDropped)"
attr title "queue length, vector"
vector 282 XHost_SpineLeaf_Network.leaf[1].topOfRack.eth[6].mac.queue packetPopped:vector(packetBytes) ETV
attr interpolationmode none
attr title "packet popped, vector(packetBytes)"
vector 283 XHost_SpineLeaf_Network.leaf[1].topOfRack.eth[6].mac.queue queueingTime:vector ETV
attr interpolationmode none
attr source queueingTime(packetPopped)
attr title "queueing times, vector"
attr unit s
vector 284 XHost_SpineLeaf_Network.leaf[2].topOfRack.eth[5].mac packetReceivedFromUpper:vector(packetBytes) ETV
attr interpolationmode none
attr source packetReceivedFromUpper
attr title "packet bytes from higher layer, vector(packetBytes)"
vector 285 XHost_SpineLeaf_Network.leaf[2].topOfRack.eth[5].mac.queue packetPushed:vector(packetBytes) ETV
attr interpolationmode none
attr title "packet pushed, vector(packetBytes)"
vector 286 XHost_SpineLeaf_Network.leaf[2].topOfRack.eth[5].mac.queue queueLength:vector ETV
attr interpolationmode sample-hold
attr source "count(packetPushed) - count(packetPopped) - count(packetRemoved) - count(packetDropped)"
attr title "queue length, vector"
vector 287 XHost_SpineLeaf_Network.leaf[2].topOfRack.eth[5].mac.queue packetPopped:vector(packetBytes) ETV
attr interpolationmode none
attr title "packet popped, vector(packetBytes)"
vector 288 XHost_SpineLeaf_Network.leaf[2].topOfRack.eth[5].mac.queue queueingTime:vector ETV
attr interpolationmode none
attr source queueingTime(packetPopped)
attr title "queueing times, vector"
attr unit s
vector 289 XHost_SpineLeaf_Network.leaf[2].topOfRack.eth[6].mac packetReceivedFromUpper:vector(packetBytes) ETV
attr interpolationmode none
attr source packetReceivedFromUpper
attr title "packet bytes from higher layer, vector(packetBytes)"
vector 290 XHost_SpineLeaf_Network.leaf[2].topOfRack.eth[6].mac.queue packetPushed:vector(packetBytes) ETV
attr interpolationmode none
attr title "packet pushed, vector(packetBytes)"
vector 291 XHost_SpineLeaf_Network.leaf[2].topOfRack.eth[6].mac.queue queueLength:vector ETV
attr interpolationmode sample-hold
attr source "count(packetPushed) - count(packetPopped) - count(packetRemoved) - count(packetDropped)"
attr title "queue length, vector"
vector 292 XHost_SpineLeaf_Network.leaf[2].topOfRack.eth[6].mac.queue packetPopped:vector(packetBytes) ETV
attr interpolationmode none
attr title "packet popped, vector(packetBytes)"
vector 293 XHost_SpineLeaf_Network.leaf[2].topOfRack.eth[6].mac.queue queueingTime:vector ETV
attr interpolationmode none
attr source queueingTime(packetPopped)
attr title "queueing times, vector"
attr unit s
vector 294 XHost_SpineLeaf_Network.leaf[3].topOfRack.eth[5].mac packetReceivedFromUpper:vector(packetBytes) ETV
attr interpolationmode none
attr source packetReceivedFromUpper
attr title "packet bytes from higher layer, vector(packetBytes)"
vector 295 XHost_SpineLeaf_Network.leaf[3].topOfRack.eth[5].mac.queue packetPushed:vector(packetBytes) ETV
attr interpolationmode none
attr title "packet pushed, vector(packetBytes)"
vector 296 XHost_SpineLeaf_Network.leaf[3].topOfRack.eth[5].mac.queue queueLength:vector ETV
attr interpolationmode sample-hold
attr source "count(packetPushed) - count(packetPopped) - count(packetRemoved) - count(packetDropped)"
attr title "queue length, vector"
vector 297 XHost_SpineLeaf_Network.leaf[3].topOfRack.eth[5].mac.queue packetPopped:vector(packetBytes) ETV
attr interpolationmode none
attr title "packet popped, vector(packetBytes)"
vector 298 XHost_SpineLeaf_Network.leaf[3].topOfRack.eth[5].mac.queue queueingTime:vector ETV
attr interpolationmode none
attr source queueingTime(packetPopped)
attr title "queueing times, vector"
attr unit s
vector 299 XHost_SpineLeaf_Network.leaf[3].topOfRack.eth[6].mac packetReceivedFromUpper:vector(packetBytes) ETV
attr interpolationmode none
attr source packetReceivedFromUpper
attr title "packet bytes from higher layer, vector(packetBytes)"
vector 300 XHost_SpineLeaf_Network.leaf[3].topOfRack.eth[6].mac.queue packetPushed:vector(packetBytes) ETV
attr interpolationmode none
attr title "packet pushed, vector(packetBytes)"
vector 301 XHost_SpineLeaf_Network.leaf[3].topOfRack.eth[6].mac.queue queueLength:vector ETV
attr interpolationmode sample-hold
attr source "count(packetPushed) - count(packetPopped) - count(packetRemoved) - count(packetDropped)"
attr title "queue length, vector"
vector 302 XHost_SpineLeaf_Network.leaf[3].topOfRack.eth[6].mac.queue packetPopped:vector(packetBytes) ETV
attr interpolationmode none
attr title "packet popped, vector(packetBytes)"
vector 303 XHost_SpineLeaf_Network.leaf[3].topOfRack.eth[6].mac.queue queueingTime:vector ETV
attr interpolationmode none
attr source queueingTime(packetPopped)
attr title "queueing times, vector"
attr unit s
vector 304 XHost_SpineLeaf_Network.leaf[4].topOfRack.eth[5].mac packetReceivedFromUpper:vector(packetBytes) ETV
attr interpolationmode none
attr source packetReceivedFromUpper
attr title "packet bytes from higher layer, vector(packetBytes)"
vector 305 XHost_SpineLeaf_Network.leaf[4].topOfRack.eth[5].mac.queue packetPushed:vector(packetBytes) ETV
attr interpolationmode none
attr title "packet pushed, vector(packetBytes)"
vector 306 XHost_SpineLeaf_Network.leaf[4].topOfRack.eth[5].mac.queue queueLength:vector ETV
attr interpolationmode sample-hold
attr source "count(packetPushed) - count(packetPopped) - count(packetRemoved) - count(packetDropped)"
attr title "queue length, vector"
vector 307 XHost_SpineLeaf_Network.leaf[4].topOfRack.eth[5].mac.queue packetPopped:vector(packetBytes) ETV
attr interpolationmode none
attr title "packet popped, vector(packetBytes)"
vector 308 XHost_SpineLeaf_Network.leaf[4].topOfRack.eth[5].mac.queue queueingTime:vector ETV
attr interpolationmode none
attr source queueingTime(packetPopped)
attr title "queueing times, vector"
attr unit s
vector 309 XHost_SpineLeaf_Network.leaf[4].topOfRack.eth[6].mac packetReceivedFromUpper:vector(packetBytes) ETV
attr interpolationmode none
attr source packetReceivedFromUpper
attr title "packet bytes from higher layer, vector(packetBytes)"
vector 310 XHost_SpineLeaf_Network.leaf[4].topOfRack.eth[6].mac.queue packetPushed:vector(packetBytes) ETV
attr interpolationmode none
attr title "packet pushed, vector(packetBytes)"
vector 311 XHost_SpineLeaf_Network.leaf[4].topOfRack.eth[6].mac.queue queueLength:vector ETV
attr interpolationmode sample-hold
attr source "count(packetPushed) - count(packetPopped) - count(packetRemoved) - count(packetDropped)"
attr title "queue length, vector"
vector 312 XHost_SpineLeaf_Network.leaf[4].topOfRack.eth[6].mac.queue packetPopped:vector(packetBytes) ETV
attr interpolationmode none
attr title "packet popped, vector(packetBytes)"
vector 313 XHost_SpineLeaf_Network.leaf[4].topOfRack.eth[6].mac.queue queueingTime:vector ETV
attr interpolationmode none
attr source queueingTime(packetPopped)
attr title "queueing times, vector"
attr unit s
vector 314 XHost_SpineLeaf_Network.leaf[5].topOfRack.eth[5].mac packetReceivedFromUpper:vector(packetBytes) ETV
attr interpolationmode none
attr source packetReceivedFromUpper
attr title "packet bytes from higher layer, vector(packetBytes)"
vector 315 XHost_SpineLeaf_Network.leaf[5].topOfRack.eth[5].mac.queue packetPushed:vector(packetBytes) ETV
attr interpolationmode none
attr title "packet pushed, vector(packetBytes)"
vector 316 XHost_SpineLeaf_Network.leaf[5].topOfRack.eth[5].mac.queue queueLength:vector ETV
attr interpolationmode sample-hold
attr source "count(packetPushed) - count(packetPopped) - count(packetRemoved) - count(packetDropped)"
attr title "queue length, vector"
vector 317 XHost_SpineLeaf_Network.leaf[5].topOfRack.eth[5].mac.queue packetPopped:vector(packetBytes) ETV
attr interpolationmode none
attr title "packet popped, vector(packetBytes)"
vector 318 XHost_SpineLeaf_Network.leaf[5].topOfRack.eth[5].mac.queue queueingTime:vector ETV
attr interpolationmode none
attr source queueingTime(packetPopped)
attr title "queueing times, vector"
attr unit s
vector 319 XHost_SpineLeaf_Network.leaf[5].topOfRack.eth[6].mac packetReceivedFromUpper:vector(packetBytes) ETV
attr interpolationmode none
attr source packetReceivedFromUpper
attr title "packet bytes from higher layer, vector(packetBytes)"
vector 320 XHost_SpineLeaf_Network.leaf[5].topOfRack.eth[6].mac.queue packetPushed:vector(packetBytes) ETV
attr interpolationmode none
attr title "packet pushed, vector(packetBytes)"
vector 321 XHost_SpineLeaf_Network.leaf[5].topOfRack.eth[6].mac.queue queueLength:vector ETV
attr interpolationmode sample-hold
attr source "count(packetPushed) - count(packetPopped) - count(packetRemoved) - count(packetDropped)"
attr title "queue length, vector"
vector 322 XHost_SpineLeaf_Network.leaf[5].topOfRack.eth[6].mac.queue packetPopped:vector(packetBytes) ETV
attr interpolationmode none
attr title "packet popped, vector(packetBytes)"
vector 323 XHost_SpineLeaf_Network.leaf[5].topOfRack.eth[6].mac.queue queueingTime:vector ETV
attr interpolationmode none
attr source queueingTime(packetPopped)
attr title "queueing times, vector"
attr unit s
vector 324 XHost_SpineLeaf_Network.leaf[6].topOfRack.eth[5].mac packetReceivedFromUpper:vector(packetBytes) ETV
attr interpolationmode none
attr source packetReceivedFromUpper
attr title "packet bytes from higher layer, vector(packetBytes)"
vector 325 XHost_SpineLeaf_Network.leaf[6].topOfRack.eth[5].mac.queue packetPushed:vector(packetBytes) ETV
attr interpolationmode none
attr title "packet pushed, vector(packetBytes)"
vector 326 XHost_SpineLeaf_Network.leaf[6].topOfRack.eth[5].mac.queue queueLength:vector ETV
attr interpolationmode sample-hold
attr source "count(packetPushed) - count(packetPopped) - count(packetRemoved) - count(packetDropped)"
attr title "queue length, vector"
vector 327 XHost_SpineLeaf_Network.leaf[6].topOfRack.eth[5].mac.queue packetPopped:vector(packetBytes) ETV
attr interpolationmode none
attr title "packet popped, vector(packetBytes)"
vector 328 XHost_SpineLeaf_Network.leaf[6].topOfRack.eth[5].mac.queue queueingTime:vector ETV
attr interpolationmode none
attr source queueingTime(packetPopped)
attr title "queueing times, vector"
attr unit s
vector 329 XHost_SpineLeaf_Network.leaf[6].topOfRack.eth[6].mac packetReceivedFromUpper:vector(packetBytes) ETV
attr interpolationmode none
attr source packetReceivedFromUpper
attr title "packet bytes from higher layer, vector(packetBytes)"
vector 330 XHost_SpineLeaf_Network.leaf[6].topOfRack.eth[6].mac.queue packetPushed:vector(packetBytes) ETV
attr interpolationmode none
attr title "packet pushed, vector(packetBytes)"
vector 331 XHost_SpineLeaf_Network.leaf[6].topOfRack.eth[6].mac.queue queueLength:vector ETV
attr interpolationmode sample-hold
attr source "count(packetPushed) - count(packetPopped) - count(packetRemoved) - count(packetDropped)"
attr title "queue length, vector"
vector 332 XHost_SpineLeaf_Network.leaf[6].topOfRack.eth[6].mac.queue packetPopped:vector(packetBytes) ETV
attr interpolationmode none
attr title "packet popped, vector(packetBytes)"
vector 333 XHost_SpineLeaf_Network.leaf[6].topOfRack.eth[6].mac.queue queueingTime:vector ETV
attr interpolationmode none
attr source queueingTime(packetPopped)
attr title "queueing times, vector"
attr unit s
vector 334 XHost_SpineLeaf_Network.leaf[7].topOfRack.eth[5].mac packetReceivedFromUpper:vector(packetBytes) ETV
attr interpolationmode none
attr source packetReceivedFromUpper
attr title "packet bytes from higher layer, vector(packetBytes)"
vector 335 XHost_SpineLeaf_Network.leaf[7].topOfRack.eth[5].mac.queue packetPushed:vector(packetBytes) ETV
attr interpolationmode none
attr title "packet pushed, vector(packetBytes)"
vector 336 XHost_SpineLeaf_Network.leaf[7].topOfRack.eth[5].mac.queue queueLength:vector ETV
attr interpolationmode sample-hold
attr source "count(packetPushed) - count(packetPopped) - count(packetRemoved) - count(packetDropped)"
attr title "queue length, vector"
vector 337 XHost_SpineLeaf_Network.leaf[7].topOfRack.eth[5].mac.queue packetPopped:vector(packetBytes) ETV
attr interpolationmode none
attr title "packet popped, vector(packetBytes)"
vector 338 XHost_SpineLeaf_Network.leaf[7].topOfRack.eth[5].mac.queue queueingTime:vector ETV
attr interpolationmode none
attr source queueingTime(packetPopped)
attr title "queueing times, vector"
attr unit s
vector 339 XHost_SpineLeaf_Network.leaf[7].topOfRack.eth[6].mac packetReceivedFromUpper:vector(packetBytes) ETV
attr interpolationmode none
attr source packetReceivedFromUpper
attr title "packet bytes from higher layer, vector(packetBytes)"
vector 340 XHost_SpineLeaf_Network.leaf[7].topOfRack.eth[6].mac.queue packetPushed:vector(packetBytes) ETV
attr interpolationmode none
attr title "packet pushed, vector(packetBytes)"
vector 341 XHost_SpineLeaf_Network.leaf[7].topOfRack.eth[6].mac.queue queueLength:vector ETV
attr interpolationmode sample-hold
attr source "count(packetPushed) - count(packetPopped) - count(packetRemoved) - count(packetDropped)"
attr title "queue length, vector"
vector 342 XHost_SpineLeaf_Network.leaf[7].topOfRack.eth[6].mac.queue packetPopped:vector(packetBytes) ETV
attr interpolationmode none
attr title "packet popped, vector(packetBytes)"
vector 343 XHost_SpineLeaf_Network.leaf[7].topOfRack.eth[6].mac.queue queueingTime:vector ETV
attr interpolationmode none
attr source queueingTime(packetPopped)
attr title "queueing times, vector"
attr unit s
vector 344 XHost_SpineLeaf_Network.leaf[0].topOfRack.eth[5].mac txPk:vector(packetBytes) ETV
attr interpolationmode none
attr source packetSentToLower
attr title "packets transmitted, vector(packetBytes)"
vector 345 XHost_SpineLeaf_Network.leaf[0].topOfRack.eth[6].mac txPk:vector(packetBytes) ETV
attr interpolationmode none
attr source packetSentToLower
attr title "packets transmitted, vector(packetBytes)"
vector 346 XHost_SpineLeaf_Network.leaf[1].topOfRack.eth[5].mac txPk:vector(packetBytes) ETV
attr interpolationmode none
attr source packetSentToLower
attr title "packets transmitted, vector(packetBytes)"
vector 347 XHost_SpineLeaf_Network.leaf[1].topOfRack.eth[6].mac txPk:vector(packetBytes) ETV
attr interpolationmode none
attr source packetSentToLower
attr title "packets transmitted, vector(packetBytes)"
vector 348 XHost_SpineLeaf_Network.leaf[2].topOfRack.eth[5].mac txPk:vector(packetBytes) ETV
attr interpolationmode none
attr source packetSentToLower
attr title "packets transmitted, vector(packetBytes)"
vector 349 XHost_SpineLeaf_Network.leaf[2].topOfRack.eth[6].mac txPk:vector(packetBytes) ETV
attr interpolationmode none
attr source packetSentToLower
attr title "packets transmitted, vector(packetBytes)"
vector 350 XHost_SpineLeaf_Network.leaf[3].topOfRack.eth[5].mac txPk:vector(packetBytes) ETV
attr interpolationmode none
attr source packetSentToLower
attr title "packets transmitted, vector(packetBytes)"
vector 351 XHost_SpineLeaf_Network.leaf[3].topOfRack.eth[6].mac txPk:vector(packetBytes) ETV
attr interpolationmode none
attr source packetSentToLower
attr title "packets transmitted, vector(packetBytes)"
vector 352 XHost_SpineLeaf_Network.leaf[4].topOfRack.eth[5].mac txPk:vector(packetBytes) ETV
attr interpolationmode none
attr source packetSentToLower
attr title "packets transmitted, vector(packetBytes)"
vector 353 XHost_SpineLeaf_Network.leaf[4].topOfRack.eth[6].mac txPk:vector(packetBytes) ETV
attr interpolationmode none
attr source packetSentToLower
attr title "packets transmitted, vector(packetBytes)"
vector 354 XHost_SpineLeaf_Network.leaf[5].topOfRack.eth[5].mac txPk:vector(packetBytes) ETV
attr interpolationmode none
attr source packetSentToLower
attr title "packets transmitted, vector(packetBytes)"
vector 355 XHost_SpineLeaf_Network.leaf[5].topOfRack.eth[6].mac txPk:vector(packetBytes) ETV
attr interpolationmode none
attr source packetSentToLower
attr title "packets transmitted, vector(packetBytes)"
vector 356 XHost_SpineLeaf_Network.leaf[6].topOfRack.eth[5].mac txPk:vector(packetBytes) ETV
attr interpolationmode none
attr source packetSentToLower
attr title "packets transmitted, vector(packetBytes)"
vector 357 XHost_SpineLeaf_Network.leaf[6].topOfRack.eth[6].mac txPk:vector(packetBytes) ETV
attr interpolationmode none
attr source packetSentToLower
attr title "packets transmitted, vector(packetBytes)"
vector 358 XHost_SpineLeaf_Network.leaf[7].topOfRack.eth[5].mac txPk:vector(packetBytes) ETV
attr interpolationmode none
attr source packetSentToLower
attr title "packets transmitted, vector(packetBytes)"
vector 359 XHost_SpineLeaf_Network.leaf[7].topOfRack.eth[6].mac txPk:vector(packetBytes) ETV
attr interpolationmode none
attr source packetSentToLower
attr title "packets transmitted, vector(packetBytes)"
vector 360 XHost_SpineLeaf_Network.leaf[0].H[0].eth[0].mac rxPkOk:vector(packetBytes) ETV
attr interpolationmode none
attr source rxPkOk
attr title "packets received OK, vector(packetBytes)"
vector 361 XHost_SpineLeaf_Network.leaf[0].H[0].eth[0].mac passedUpPk:vector(packetBytes) ETV
attr interpolationmode none
attr source packetSentToUpper
attr title "packets passed to higher layer, vector(packetBytes)"
vector 362 XHost_SpineLeaf_Network.leaf[0].H[1].eth[0].mac rxPkOk:vector(packetBytes) ETV
attr interpolationmode none
attr source rxPkOk
attr title "packets received OK, vector(packetBytes)"
vector 363 XHost_SpineLeaf_Network.leaf[0].H[1].eth[0].mac passedUpPk:vector(packetBytes) ETV
attr interpolationmode none
attr source packetSentToUpper
attr title "packets passed to higher layer, vector(packetBytes)"
vector 364 XHost_SpineLeaf_Network.leaf[1].H[0].eth[0].mac rxPkOk:vector(packetBytes) ETV
attr interpolationmode none
attr source rxPkOk
attr title "packets received OK, vector(packetBytes)"
vector 365 XHost_SpineLeaf_Network.leaf[1].H[0].eth[0].mac passedUpPk:vector(packetBytes) ETV
attr interpolationmode none
attr source packetSentToUpper
attr title "packets passed to higher layer, vector(packetBytes)"
vector 366 XHost_SpineLeaf_Network.leaf[1].H[1].eth[0].mac rxPkOk:vector(packetBytes) ETV
attr interpolationmode none
attr source rxPkOk
attr title "packets received OK, vector(packetBytes)"
vector 367 XHost_SpineLeaf_Network.leaf[1].H[1].eth[0].mac passedUpPk:vector(packetBytes) ETV
attr interpolationmode none
attr source packetSentToUpper
attr title "packets passed to higher layer, vector(packetBytes)"
vector 368 XHost_SpineLeaf_Network.leaf[2].H[0].eth[0].mac rxPkOk:vector(packetBytes) ETV
attr interpolationmode none
attr source rxPkOk
attr title "packets received OK, vector(packetBytes)"
vector 369 XHost_SpineLeaf_Network.leaf[2].H[0].eth[0].mac passedUpPk:vector(packetBytes) ETV
attr interpolationmode none
attr source packetSentToUpper
attr title "packets passed to higher layer, vector(packetBytes)"
vector 370 XHost_SpineLeaf_Network.leaf[2].H[1].eth[0].mac rxPkOk:vector(packetBytes) ETV
attr interpolationmode none
attr source rxPkOk
attr title "packets received OK, vector(packetBytes)"
vector 371 XHost_SpineLeaf_Network.leaf[2].H[1].eth[0].mac passedUpPk:vector(packetBytes) ETV
attr interpolationmode none
attr source packetSentToUpper
attr title "packets passed to higher layer, vector(packetBytes)"
vector 372 XHost_SpineLeaf_Network.leaf[3].H[0].eth[0].mac rxPkOk:vector(packetBytes) ETV
attr interpolationmode none
attr source rxPkOk
attr title "packets received OK, vector(packetBytes)"
vector 373 XHost_SpineLeaf_Network.leaf[3].H[0].eth[0].mac passedUpPk:vector(packetBytes) ETV
attr interpolationmode none
attr source packetSentToUpper
attr title "packets passed to higher layer, vector(packetBytes)"
vector 374 XHost_SpineLeaf_Network.leaf[3].H[1].eth[0].mac rxPkOk:vector(packetBytes) ETV
attr interpolationmode none
attr source rxPkOk
attr title "packets received OK, vector(packetBytes)"
vector 375 XHost_SpineLeaf_Network.leaf[3].H[1].eth[0].mac passedUpPk:vector(packetBytes) ETV
attr interpolationmode none
attr source packetSentToUpper
attr title "packets passed to higher layer, vector(packetBytes)"
vector 376 XHost_SpineLeaf_Network.leaf[4].H[0].eth[0].mac rxPkOk:vector(packetBytes) ETV
attr interpolationmode none
attr source rxPkOk
attr title "packets received OK, vector(packetBytes)"
vector 377 XHost_SpineLeaf_Network.leaf[4].H[0].eth[0].mac passedUpPk:vector(packetBytes) ETV
attr interpolationmode none
attr source packetSentToUpper
attr title "packets passed to higher layer, vector(packetBytes)"
vector 378 XHost_SpineLeaf_Network.leaf[4].H[1].eth[0].mac rxPkOk:vector(packetBytes) ETV
attr interpolationmode none
attr source rxPkOk
attr title "packets received OK, vector(packetBytes)"
vector 379 XHost_SpineLeaf_Network.leaf[4].H[1].eth[0].mac passedUpPk:vector(packetBytes) ETV
attr interpolationmode none
attr source packetSentToUpper
attr title "packets passed to higher layer, vector(packetBytes)"
vector 380 XHost_SpineLeaf_Network.leaf[5].H[0].eth[0].mac rxPkOk:vector(packetBytes) ETV
attr interpolationmode none
attr source rxPkOk
attr title "packets received OK, vector(packetBytes)"
vector 381 XHost_SpineLeaf_Network.leaf[5].H[0].eth[0].mac passedUpPk:vector(packetBytes) ETV
attr interpolationmode none
attr source packetSentToUpper
attr title "packets passed to higher layer, vector(packetBytes)"
vector 382 XHost_SpineLeaf_Network.leaf[5].H[1].eth[0].mac rxPkOk:vector(packetBytes) ETV
attr interpolationmode none
attr source rxPkOk
attr title "packets received OK, vector(packetBytes)"
vector 383 XHost_SpineLeaf_Network.leaf[5].H[1].eth[0].mac passedUpPk:vector(packetBytes) ETV
attr interpolationmode none
attr source packetSentToUpper
attr title "packets passed to higher layer, vector(packetBytes)"
vector 384 XHost_SpineLeaf_Network.leaf[6].H[0].eth[0].mac rxPkOk:vector(packetBytes) ETV
attr interpolationmode none
attr source rxPkOk
attr title "packets received OK, vector(packetBytes)"
vector 385 XHost_SpineLeaf_Network.leaf[6].H[0].eth[0].mac passedUpPk:vector(packetBytes) ETV
attr interpolationmode none
attr source packetSentToUpper
attr title "packets passed to higher layer, vector(packetBytes)"
vector 386 XHost_SpineLeaf_Network.leaf[6].H[1].eth[0].mac rxPkOk:vector(packetBytes) ETV
attr interpolationmode none
attr source rxPkOk
attr title "packets received OK, vector(packetBytes)"
vector 387 XHost_SpineLeaf_Network.leaf[6].H[1].eth[0].mac passedUpPk:vector(packetBytes) ETV
attr interpolationmode none
attr source packetSentToUpper
attr title "packets passed to higher layer, vector(packetBytes)"
vector 388 XHost_SpineLeaf_Network.leaf[7].H[0].eth[0].mac rxPkOk:vector(packetBytes) ETV
attr interpolationmode none
attr source rxPkOk
attr title "packets received OK, vector(packetBytes)"
vector 389 XHost_SpineLeaf_Network.leaf[7].H[0].eth[0].mac passedUpPk:vector(packetBytes) ETV
attr interpolationmode none
attr source packetSentToUpper
attr title "packets passed to higher layer, vector(packetBytes)"
vector 390 XHost_SpineLeaf_Network.leaf[7].H[1].eth[0].mac rxPkOk:vector(packetBytes) ETV
attr interpolationmode none
attr source rxPkOk
attr title "packets received OK, vector(packetBytes)"
vector 391 XHost_SpineLeaf_Network.leaf[7].H[1].eth[0].mac passedUpPk:vector(packetBytes) ETV
attr interpolationmode none
attr source packetSentToUpper
attr title "packets passed to higher layer, vector(packetBytes)"
vector 392 XHost_SpineLeaf_Network.leaf[0].H[0].eth[0].encap decapPk:vector(packetBytes) ETV
attr interpolationmode none
attr source decapPk
attr title "packets decapsulated, vector(packetBytes)"
vector 393 XHost_SpineLeaf_Network.leaf[0].H[1].eth[0].encap decapPk:vector(packetBytes) ETV
attr interpolationmode none
attr source decapPk
attr title "packets decapsulated, vector(packetBytes)"
vector 394 XHost_SpineLeaf_Network.leaf[1].H[0].eth[0].encap decapPk:vector(packetBytes) ETV
attr interpolationmode none
attr source decapPk
attr title "packets decapsulated, vector(packetBytes)"
vector 395 XHost_SpineLeaf_Network.leaf[1].H[1].eth[0].encap decapPk:vector(packetBytes) ETV
attr interpolationmode none
attr source decapPk
attr title "packets decapsulated, vector(packetBytes)"
vector 396 XHost_SpineLeaf_Network.leaf[2].H[0].eth[0].encap decapPk:vector(packetBytes) ETV
attr interpolationmode none
attr source decapPk
attr title "packets decapsulated, vector(packetBytes)"
vector 397 XHost_SpineLeaf_Network.leaf[2].H[1].eth[0].encap decapPk:vector(packetBytes) ETV
attr interpolationmode none
attr source decapPk
attr title "packets decapsulated, vector(packetBytes)"
vector 398 XHost_SpineLeaf_Network.leaf[3].H[0].eth[0].encap decapPk:vector(packetBytes) ETV
attr interpolationmode none
attr source decapPk
attr title "packets decapsulated, vector(packetBytes)"
vector 399 XHost_SpineLeaf_Network.leaf[3].H[1].eth[0].encap decapPk:vector(packetBytes) ETV
attr interpolationmode none
attr source decapPk
attr title "packets decapsulated, vector(packetBytes)"
vector 400 XHost_SpineLeaf_Network.leaf[4].H[0].eth[0].encap decapPk:vector(packetBytes) ETV
attr interpolationmode none
attr source decapPk
attr title "packets decapsulated, vector(packetBytes)"
vector 401 XHost_SpineLeaf_Network.leaf[4].H[1].eth[0].encap decapPk:vector(packetBytes) ETV
attr interpolationmode none
attr source decapPk
attr title "packets decapsulated, vector(packetBytes)"
vector 402 XHost_SpineLeaf_Network.leaf[5].H[0].eth[0].encap decapPk:vector(packetBytes) ETV
attr interpolationmode none
attr source decapPk
attr title "packets decapsulated, vector(packetBytes)"
vector 403 XHost_SpineLeaf_Network.leaf[5].H[1].eth[0].encap decapPk:vector(packetBytes) ETV
attr interpolationmode none
attr source decapPk
attr title "packets decapsulated, vector(packetBytes)"
vector 404 XHost_SpineLeaf_Network.leaf[6].H[0].eth[0].encap decapPk:vector(packetBytes) ETV
attr interpolationmode none
attr source decapPk
attr title "packets decapsulated, vector(packetBytes)"
vector 405 XHost_SpineLeaf_Network.leaf[6].H[1].eth[0].encap decapPk:vector(packetBytes) ETV
attr interpolationmode none
attr source decapPk
attr title "packets decapsulated, vector(packetBytes)"
vector 406 XHost_SpineLeaf_Network.leaf[7].H[0].eth[0].encap decapPk:vector(packetBytes) ETV
attr interpolationmode none
attr source decapPk
attr title "packets decapsulated, vector(packetBytes)"
vector 407 XHost_SpineLeaf_Network.leaf[7].H[1].eth[0].encap decapPk:vector(packetBytes) ETV
attr interpolationmode none
attr source decapPk
attr title "packets decapsulated, vector(packetBytes)"
[...]
483	182088 44 395 395 1.00001743 1.00001743 2 0 1 1 1
484	182132 23 395 395 1.00001743 1.00001743 1 64 64 64 4096
485	182155 22 395 395 1.00001743 1.00001743 1 0 0 0 0
486	182177 69 396 610 1.00001743 1.00002905 3 46 62 170 9804
487	182246 69 396 610 1.00001743 1.00002905 3 64 64 192 12288
488	182315 132 396 672 1.00001743 1.00003577 6 0 1 3 3
489	182447 69 396 672 1.00001743 1.00003577 3 64 64 192 12288
490	182516 74 396 672 1.00001743 1.00003577 3 0 6.72e-006 6.72e-006 4.51584e-011
491	182590 23 397 397 1.00001743 1.00001743 1 46 46 46 2116
492	182613 23 397 397 1.00001743 1.00001743 1 64 64 64 4096
493	182636 44 397 397 1.00001743 1.00001743 2 0 1 1 1
494	182680 23 397 397 1.00001743 1.00001743 1 64 64 64 4096
495	182703 22 397 397 1.00001743 1.00001743 1 0 0 0 0
496	182725 69 398 612 1.00001743 1.00002905 3 46 62 170 9804
497	182794 69 398 612 1.00001743 1.00002905 3 64 64 192 12288
498	182863 132 398 673 1.00001743 1.00003577 6 0 1 3 3
499	182995 69 398 673 1.00001743 1.00003577 3 64 64 192 12288
500	183064 74 398 673 1.00001743 1.00003577 3 0 6.72e-006 6.72e-006 4.51584e-011
501	183138 23 399 399 1.00001743 1.00001743 1 46 46 46 2116
502	183161 23 399 399 1.00001743 1.00001743 1 64 64 64 4096
503	183184 44 399 399 1.00001743 1.00001743 2 0 1 1 1
504	183228 23 399 399 1.00001743 1.00001743 1 64 64 64 4096
505	183251 22 399 399 1.00001743 1.00001743 1 0 0 0 0
506	183273 69 416 692 1.00002319 1.00004153 3 64 64 192 12288
507	183342 69 417 693 1.00002319 1.00004153 3 64 64 192 12288
508	183411 23 418 418 1.00002319 1.00002319 1 64 64 64 4096
509	183434 69 419 694 1.00002319 1.00004153 3 64 64 192 12288
510	183503 23 420 420 1.00002319 1.00002319 1 64 64 64 4096
511	183526 69 421 695 1.00002319 1.00004153 3 64 64 192 12288
512	183595 23 422 422 1.00002319 1.00002319 1 64 64 64 4096
513	183618 69 423 696 1.00002319 1.00004153 3 64 64 192 12288
514	183687 23 424 424 1.00002319 1.00002319 1 64 64 64 4096
515	183710 69 425 697 1.00002319 1.00004153 3 64 64 192 12288
516	183779 23 426 426 1.00002319 1.00002319 1 64 64 64 4096
517	183802 69 427 698 1.00002319 1.00004153 3 64 64 192 12288
518	183871 23 428 428 1.00002319 1.00002319 1 64 64 64 4096
519	183894 69 429 699 1.00002319 1.00004153 3 64 64 192 12288
520	183963 23 430 430 1.00002319 1.00002319 1 64 64 64 4096
521	183986 69 431 700 1.00002324 1.00004158 3 64 64 192 12288
522	184055 69 431 700 1.00002324 1.00004158 3 64 64 192 12288
523	184124 69 432 701 1.00002324 1.00004158 3 64 64 192 12288
524	184193 69 432 701 1.00002324 1.00004158 3 64 64 192 12288
525	184262 23 433 433 1.00002324 1.00002324 1 64 64 64 4096
526	184285 23 433 433 1.00002324 1.00002324 1 64 64 64 4096
527	184308 69 434 702 1.00002324 1.00004158 3 64 64 192 12288
528	184377 69 434 702 1.00002324 1.00004158 3 64 64 192 12288
529	184446 23 435 435 1.00002324 1.00002324 1 64 64 64 4096
530	184469 23 435 435 1.00002324 1.00002324 1 64 64 64 4096
531	184492 69 436 703 1.00002324 1.00004158 3 64 64 192 12288
532	184561 69 436 703 1.00002324 1.00004158 3 64 64 192 12288
533	184630 23 437 437 1.00002324 1.00002324 1 64 64 64 4096
534	184653 23 437 437 1.00002324 1.00002324 1 64 64 64 4096
535	184676 69 438 704 1.00002324 1.00004158 3 64 64 192 12288
536	184745 69 438 704 1.00002324 1.00004158 3 64 64 192 12288
537	184814 23 439 439 1.00002324 1.00002324 1 64 64 64 4096
538	184837 23 439 439 1.00002324 1.00002324 1 64 64 64 4096
539	184860 69 440 705 1.00002324 1.00004158 3 64 64 192 12288
540	184929 69 440 705 1.00002324 1.00004158 3 64 64 192 12288
541	184998 23 441 441 1.00002324 1.00002324 1 64 64 64 4096
542	185021 23 441 441 1.00002324 1.00002324 1 64 64 64 4096
543	185044 69 442 706 1.00002324 1.00004158 3 64 64 192 12288
544	185113 69 442 706 1.00002324 1.00004158 3 64 64 192 12288
545	185182 23 443 443 1.00002324 1.00002324 1 64 64 64 4096
546	185205 23 443 443 1.00002324 1.00002324 1 64 64 64 4096
547	185228 69 444 707 1.00002324 1.00004158 3 64 64 192 12288
548	185297 69 444 707 1.00002324 1.00004158 3 64 64 192 12288
549	185366 23 445 445 1.00002324 1.00002324 1 64 64 64 4096
550	185389 23 445 445 1.00002324 1.00002324 1 64 64 64 4096
551	185412 69 446 711 1.00002324 1.00004158 3 46 46 138 6348
552	185481 69 447 712 1.00002324 1.00004158 3 46 46 138 6348
553	185550 23 448 448 1.00002324 1.00002324 1 46 46 46 2116
554	185573 69 449 713 1.00002324 1.00004158 3 46 46 138 6348
555	185642 23 450 450 1.00002324 1.00002324 1 46 46 46 2116
556	185665 69 451 714 1.00002324 1.00004158 3 46 46 138 6348
557	185734 23 452 452 1.00002324 1.00002324 1 46 46 46 2116
558	185757 69 453 715 1.00002324 1.00004158 3 46 46 138 6348
559	185826 23 454 454 1.00002324 1.00002324 1 46 46 46 2116
560	185849 69 455 716 1.00002324 1.00004158 3 46 46 138 6348
561	185918 23 456 456 1.00002324 1.00002324 1 46 46 46 2116
562	185941 69 457 717 1.00002324 1.00004158 3 46 46 138 6348
563	186010 23 458 458 1.00002324 1.00002324 1 46 46 46 2116
564	186033 69 459 718 1.00002324 1.00004158 3 46 46 138 6348
565	186102 23 460 460 1.00002324 1.00002324 1 46 46 46 2116
566	186125 69 461 475 1.00002324 1.00002324 3 28 28 84 2352
567	186194 92 462 472 1.00002324 1.00002324 4 28 28 112 3136
568	186286 69 463 471 1.00002324 1.00002324 3 28 28 84 2352
569	186355 115 464 474 1.00002324 1.00002324 5 28 28 140 3920
570	186470 23 476 476 1.00002324 1.00002324 1 28 28 28 784
571	186493 23 477 477 1.00002324 1.00002324 1 28 28 28 784
572	186516 23 478 478 1.00002324 1.00002324 1 28 28 28 784
573	186539 23 479 479 1.00002324 1.00002324 1 28 28 28 784
574	186562 23 480 480 1.00002324 1.00002324 1 28 28 28 784
575	186585 23 481 481 1.00002324 1.00002324 1 28 28 28 784
576	186608 23 482 482 1.00002324 1.00002324 1 28 28 28 784
577	186631 23 483 483 1.00002324 1.00002324 1 28 28 28 784
578	186654 23 484 484 1.00002324 1.00002324 1 28 28 28 784
579	186677 23 485 485 1.00002324 1.00002324 1 28 28 28 784
580	186700 23 486 486 1.00002324 1.00002324 1 28 28 28 784
581	186723 23 487 487 1.00002324 1.00002324 1 28 28 28 784
582	186746 23 488 488 1.00002324 1.00002324 1 28 28 28 784
583	186769 23 489 489 1.00002324 1.00002324 1 28 28 28 784
584	186792 23 490 490 1.00002324 1.00002324 1 28 28 28 784
585	186815 23 491 491 1.00002324 1.00002324 1 46 46 46 2116
586	186838 23 491 491 1.00002324 1.00002324 1 64 64 64 4096
587	186861 44 491 491 1.00002324 1.00002324 2 0 1 1 1
588	186905 23 491 491 1.00002324 1.00002324 1 64 64 64 4096
589	186928 22 491 491 1.00002324 1.00002324 1 0 0 0 0
590	186950 23 492 492 1.00002324 1.00002324 1 46 46 46 2116
591	186973 23 492 492 1.00002324 1.00002324 1 64 64 64 4096
592	186996 44 492 492 1.00002324 1.00002324 2 0 1 1 1
593	187040 23 492 492 1.00002324 1.00002324 1 64 64 64 4096
594	187063 22 492 492 1.00002324 1.00002324 1 0 0 0 0
595	187085 23 493 493 1.00002324 1.00002324 1 46 46 46 2116
596	187108 23 493 493 1.00002324 1.00002324 1 64 64 64 4096
597	187131 44 493 493 1.00002324 1.00002324 2 0 1 1 1
598	187175 23 493 493 1.00002324 1.00002324 1 64 64 64 4096
599	187198 22 493 493 1.00002324 1.00002324 1 0 0 0 0
600	187220 23 494 494 1.00002324 1.00002324 1 46 46 46 2116
601	187243 23 494 494 1.00002324 1.00002324 1 64 64 64 4096
602	187266 44 494 494 1.00002324 1.00002324 2 0 1 1 1
603	187310 23 494 494 1.00002324 1.00002324 1 64 64 64 4096
604	187333 22 494 494 1.00002324 1.00002324 1 0 0 0 0
605	187355 23 495 495 1.00002324 1.00002324 1 46 46 46 2116
606	187378 23 495 495 1.00002324 1.00002324 1 64 64 64 4096
607	187401 44 495 495 1.00002324 1.00002324 2 0 1 1 1
608	187445 23 495 495 1.00002324 1.00002324 1 64 64 64 4096
609	187468 22 495 495 1.00002324 1.00002324 1 0 0 0 0
610	187490 23 496 496 1.00002324 1.00002324 1 46 46 46 2116
611	187513 23 496 496 1.00002324 1.00002324 1 64 64 64 4096
612	187536 44 496 496 1.00002324 1.00002324 2 0 1 1 1
613	187580 23 496 496 1.00002324 1.00002324 1 64 64 64 4096
614	187603 22 496 496 1.00002324 1.00002324 1 0 0 0 0
615	187625 23 497 497 1.00002324 1.00002324 1 46 46 46 2116
616	187648 23 497 497 1.00002324 1.00002324 1 64 64 64 4096
617	187671 44 497 497 1.00002324 1.00002324 2 0 1 1 1
618	187715 23 497 497 1.00002324 1.00002324 1 64 64 64 4096
619	187738 22 497 497 1.00002324 1.00002324 1 0 0 0 0
620	187760 23 498 498 1.00002324 1.00002324 1 46 46 46 2116
621	187783 23 498 498 1.00002324 1.00002324 1 64 64 64 4096
622	187806 44 498 498 1.00002324 1.00002324 2 0 1 1 1
623	187850 23 498 498 1.00002324 1.00002324 1 64 64 64 4096
624	187873 22 498 498 1.00002324 1.00002324 1 0 0 0 0
625	187895 23 499 499 1.00002324 1.00002324 1 46 46 46 2116
626	187918 23 499 499 1.00002324 1.00002324 1 64 64 64 4096
627	187941 44 499 499 1.00002324 1.00002324 2 0 1 1 1
628	187985 23 499 499 1.00002324 1.00002324 1 64 64 64 4096
629	188008 22 499 499 1.00002324 1.00002324 1 0 0 0 0
630	188030 23 500 500 1.00002324 1.00002324 1 46 46 46 2116
631	188053 23 500 500 1.00002324 1.00002324 1 64 64 64 4096
632	188076 44 500 500 1.00002324 1.00002324 2 0 1 1 1
633	188120 23 500 500 1.00002324 1.00002324 1 64 64 64 4096
634	188143 22 500 500 1.00002324 1.00002324 1 0 0 0 0
635	188165 23 501 501 1.00002324 1.00002324 1 46 46 46 2116
636	188188 23 501 501 1.00002324 1.00002324 1 64 64 64 4096
637	188211 44 501 501 1.00002324 1.00002324 2 0 1 1 1
638	188255 23 501 501 1.00002324 1.00002324 1 64 64 64 4096
639	188278 22 501 501 1.00002324 1.00002324 1 0 0 0 0
640	188300 23 502 502 1.00002324 1.00002324 1 46 46 46 2116
641	188323 23 502 502 1.00002324 1.00002324 1 64 64 64 4096
642	188346 44 502 502 1.00002324 1.00002324 2 0 1 1 1
643	188390 23 502 502 1.00002324 1.00002324 1 64 64 64 4096
644	188413 22 502 502 1.00002324 1.00002324 1 0 0 0 0
645	188435 23 503 503 1.00002324 1.00002324 1 46 46 46 2116
646	188458 23 503 503 1.00002324 1.00002324 1 64 64 64 4096
647	188481 44 503 503 1.00002324 1.00002324 2 0 1 1 1
648	188525 23 503 503 1.00002324 1.00002324 1 64 64 64 4096
649	188548 22 503 503 1.00002324 1.00002324 1 0 0 0 0
650	188570 23 504 504 1.00002324 1.00002324 1 46 46 46 2116
651	188593 23 504 504 1.00002324 1.00002324 1 64 64 64 4096
652	188616 44 504 504 1.00002324 1.00002324 2 0 1 1 1
653	188660 23 504 504 1.00002324 1.00002324 1 64 64 64 4096
654	188683 22 504 504 1.00002324 1.00002324 1 0 0 0 0
655	188705 23 505 505 1.00002324 1.00002324 1 46 46 46 2116
656	188728 23 505 505 1.00002324 1.00002324 1 64 64 64 4096
657	188751 44 505 505 1.00002324 1.00002324 2 0 1 1 1
658	188795 23 505 505 1.00002324 1.00002324 1 64 64 64 4096
659	188818 22 505 505 1.00002324 1.00002324 1 0 0 0 0
660	188840 21 521 521 1.000029 1.000029 1 64 64 64 4096
661	188861 21 522 522 1.000029 1.000029 1 64 64 64 4096
662	188882 21 523 523 1.000029 1.000029 1 64 64 64 4096
663	188903 21 524 524 1.000029 1.000029 1 64 64 64 4096
664	188924 21 525 525 1.000029 1.000029 1 64 64 64 4096
665	188945 21 526 526 1.000029 1.000029 1 64 64 64 4096
666	188966 21 527 527 1.000029 1.000029 1 64 64 64 4096
667	188987 21 528 528 1.000029 1.000029 1 64 64 64 4096
668	189008 21 529 529 1.000029 1.000029 1 64 64 64 4096
669	189029 21 530 530 1.000029 1.000029 1 64 64 64 4096
670	189050 21 531 531 1.000029 1.000029 1 64 64 64 4096
671	189071 21 532 532 1.000029 1.000029 1 64 64 64 4096
672	189092 21 533 533 1.000029 1.000029 1 64 64 64 4096
673	189113 21 534 534 1.000029 1.000029 1 64 64 64 4096
674	189134 21 535 535 1.000029 1.000029 1 64 64 64 4096
675	189155 23 536 536 1.00002905 1.00002905 1 64 64 64 4096
676	189178 23 536 536 1.00002905 1.00002905 1 64 64 64 4096
677	189201 23 537 537 1.00002905 1.00002905 1 64 64 64 4096
678	189224 23 537 537 1.00002905 1.00002905 1 64 64 64 4096
679	189247 23 538 538 1.00002905 1.00002905 1 64 64 64 4096
680	189270 23 538 538 1.00002905 1.00002905 1 64 64 64 4096
681	189293 23 539 539 1.00002905 1.00002905 1 64 64 64 4096
682	189316 23 539 539 1.00002905 1.00002905 1 64 64 64 4096
683	189339 23 540 540 1.00002905 1.00002905 1 64 64 64 4096
684	189362 23 540 540 1.00002905 1.00002905 1 64 64 64 4096
685	189385 23 541 541 1.00002905 1.00002905 1 64 64 64 4096
686	189408 23 541 541 1.00002905 1.00002905 1 64 64 64 4096
687	189431 23 542 542 1.00002905 1.00002905 1 64 64 64 4096
688	189454 23 542 542 1.00002905 1.00002905 1 64 64 64 4096
689	189477 23 543 543 1.00002905 1.00002905 1 64 64 64 4096
690	189500 23 543 543 1.00002905 1.00002905 1 64 64 64 4096
691	189523 23 544 544 1.00002905 1.00002905 1 64 64 64 4096
692	189546 23 544 544 1.00002905 1.00002905 1 64 64 64 4096
693	189569 23 545 545 1.00002905 1.00002905 1 64 64 64 4096
694	189592 23 545 545 1.00002905 1.00002905 1 64 64 64 4096
695	189615 23 546 546 1.00002905 1.00002905 1 64 64 64 4096
696	189638 23 546 546 1.00002905 1.00002905 1 64 64 64 4096
697	189661 23 547 547 1.00002905 1.00002905 1 64 64 64 4096
698	189684 23 547 547 1.00002905 1.00002905 1 64 64 64 4096
699	189707 23 548 548 1.00002905 1.00002905 1 64 64 64 4096
700	189730 23 548 548 1.00002905 1.00002905 1 64 64 64 4096
701	189753 23 549 549 1.00002905 1.00002905 1 64 64 64 4096
702	189776 23 549 549 1.00002905 1.00002905 1 64 64 64 4096
703	189799 23 550 550 1.00002905 1.00002905 1 64 64 64 4096
704	189822 23 550 550 1.00002905 1.00002905 1 64 64 64 4096
705	189845 23 551 551 1.00002905 1.00002905 1 46 46 46 2116
706	189868 23 552 552 1.00002905 1.00002905 1 46 46 46 2116
707	189891 23 553 553 1.00002905 1.00002905 1 46 46 46 2116
708	189914 23 554 554 1.00002905 1.00002905 1 46 46 46 2116
709	189937 23 555 555 1.00002905 1.00002905 1 46 46 46 2116
710	189960 23 556 556 1.00002905 1.00002905 1 46 46 46 2116
711	189983 23 557 557 1.00002905 1.00002905 1 46 46 46 2116
712	190006 23 558 558 1.00002905 1.00002905 1 46 46 46 2116
713	190029 23 559 559 1.00002905 1.00002905 1 46 46 46 2116
714	190052 23 560 560 1.00002905 1.00002905 1 46 46 46 2116
715	190075 23 561 561 1.00002905 1.00002905 1 46 46 46 2116
716	190098 23 562 562 1.00002905 1.00002905 1 46 46 46 2116
717	190121 23 563 563 1.00002905 1.00002905 1 46 46 46 2116
718	190144 23 564 564 1.00002905 1.00002905 1 46 46 46 2116
719	190167 23 565 565 1.00002905 1.00002905 1 46 46 46 2116
720	190190 23 652 652 1.00003486 1.00003486 1 28 28 28 784
721	190213 23 653 653 1.00003486 1.00003486 1 28 28 28 784
722	190236 23 654 654 1.00003486 1.00003486 1 28 28 28 784
723	190259 115 660 750 1.00003486 1.00004648 5 28 44 204 8528
724	190374 161 661 756 1.00003486 1.00004648 7 28 44 292 12400
725	190535 161 662 762 1.00003486 1.00004648 7 28 44 292 12400
726	190696 115 663 766 1.00003486 1.00004648 5 46 62 294 17492
727	190811 115 663 766 1.00003486 1.00004648 5 64 64 320 20480
728	190926 219 663 796 1.00003486 1.0000532 10 0 2 9 13
729	191145 68 663 796 1.00003486 1.0000532 3 64 64 192 12288
730	191213 73 663 796 1.00003486 1.0000532 3 0 6.72e-006 6.72e-006 4.51584e-011
731	191286 161 664 772 1.00003486 1.00004648 7 46 62 418 25180
732	191447 161 664 772 1.00003486 1.00004648 7 64 64 448 28672
733	191608 307 664 797 1.00003486 1.0000532 14 0 2 15 23
734	191915 68 664 797 1.00003486 1.0000532 3 64 64 192 12288
735	191983 73 664 797 1.00003486 1.0000532 3 0 6.72e-006 6.72e-006 4.51584e-011
736	192056 161 665 778 1.00003486 1.00004648 7 46 62 418 25180
737	192217 161 665 778 1.00003486 1.00004648 7 64 64 448 28672
738	192378 307 665 798 1.00003486 1.0000532 14 0 2 15 23
739	192685 68 665 798 1.00003486 1.0000532 3 64 64 192 12288
740	192753 73 665 798 1.00003486 1.0000532 3 0 6.72e-006 6.72e-006 4.51584e-011
741	192826 69 674 805 1.00004062 1.00005896 3 64 64 192 12288
742	192895 69 675 806 1.00004062 1.00005896 3 64 64 192 12288
743	192964 69 676 807 1.00004062 1.00005896 3 64 64 192 12288
744	193033 69 677 808 1.00004067 1.00005901 3 64 64 192 12288
745	193102 69 677 808 1.00004067 1.00005901 3 64 64 192 12288
746	193171 69 678 809 1.00004067 1.00005901 3 64 64 192 12288
747	193240 69 678 809 1.00004067 1.00005901 3 64 64 192 12288
748	193309 69 679 810 1.00004067 1.00005901 3 64 64 192 12288
749	193378 69 679 810 1.00004067 1.00005901 3 64 64 192 12288
750	193447 69 680 812 1.00004067 1.00005901 3 46 46 138 6348
751	193516 69 681 813 1.00004067 1.00005901 3 46 46 138 6348
752	193585 69 682 814 1.00004067 1.00005901 3 46 46 138 6348
753	193654 69 683 685 1.00004067 1.00004067 3 28 28 84 2352
754	193723 23 686 686 1.00004067 1.00004067 1 28 28 28 784
755	193746 23 687 687 1.00004067 1.00004067 1 28 28 28 784
756	193769 23 688 688 1.00004067 1.00004067 1 28 28 28 784
757	193792 23 689 689 1.00004067 1.00004067 1 46 46 46 2116
758	193815 23 689 689 1.00004067 1.00004067 1 64 64 64 4096
759	193838 44 689 689 1.00004067 1.00004067 2 0 1 1 1
760	193882 23 689 689 1.00004067 1.00004067 1 64 64 64 4096
761	193905 22 689 689 1.00004067 1.00004067 1 0 0 0 0
762	193927 23 690 690 1.00004067 1.00004067 1 46 46 46 2116
763	193950 23 690 690 1.00004067 1.00004067 1 64 64 64 4096
764	193973 44 690 690 1.00004067 1.00004067 2 0 1 1 1
765	194017 23 690 690 1.00004067 1.00004067 1 64 64 64 4096
766	194040 22 690 690 1.00004067 1.00004067 1 0 0 0 0
767	194062 23 691 691 1.00004067 1.00004067 1 46 46 46 2116
768	194085 23 691 691 1.00004067 1.00004067 1 64 64 64 4096
769	194108 44 691 691 1.00004067 1.00004067 2 0 1 1 1
770	194152 23 691 691 1.00004067 1.00004067 1 64 64 64 4096
771	194175 22 691 691 1.00004067 1.00004067 1 0 0 0 0
772	194197 23 735 735 1.00004643 1.00004643 1 64 64 64 4096
773	194220 23 736 736 1.00004643 1.00004643 1 64 64 64 4096
774	194243 23 737 737 1.00004643 1.00004643 1 64 64 64 4096
775	194266 23 738 738 1.00004648 1.00004648 1 64 64 64 4096
776	194289 23 738 738 1.00004648 1.00004648 1 64 64 64 4096
777	194312 23 739 739 1.00004648 1.00004648 1 64 64 64 4096
778	194335 23 739 739 1.00004648 1.00004648 1 64 64 64 4096
779	194358 23 740 740 1.00004648 1.00004648 1 64 64 64 4096
780	194381 23 740 740 1.00004648 1.00004648 1 64 64 64 4096
781	194404 23 741 741 1.00004648 1.00004648 1 46 46 46 2116
782	194427 23 742 742 1.00004648 1.00004648 1 46 46 46 2116
783	194450 23 743 743 1.00004648 1.00004648 1 46 46 46 2116
784	194473 46 765 766 1.00004648 1.00004648 2 64 64 128 8192
785	194519 92 769 772 1.00004648 1.00004648 4 64 64 256 16384
786	194611 92 775 778 1.00004648 1.00004648 4 64 64 256 16384
787	194703 23 791 791 1.00005229 1.00005229 1 28 28 28 784
788	194726 161 794 830 1.00005229 1.00006391 7 28 44 292 12400
789	194887 161 795 836 1.00005229 1.00006391 7 46 62 418 25180
790	195048 161 795 836 1.00005229 1.00006391 7 64 64 448 28672
791	195209 286 795 836 1.00005229 1.00006391 13 0 2 15 23
792	195495 46 795 831 1.00005229 1.00006391 2 64 64 128 8192
793	195541 44 795 831 1.00005229 1.00006391 2 0 0 0 0
794	195585 46 799 838 1.00005805 1.00006967 2 64 64 128 8192
795	195631 45 800 839 1.0000581 1.00006972 2 64 64 128 8192
796	195676 45 800 839 1.0000581 1.00006972 2 64 64 128 8192
797	195721 45 801 840 1.0000581 1.00006972 2 46 46 92 4232
798	195766 22 802 802 1.0000581 1.0000581 1 28 28 28 784
799	195788 22 803 803 1.0000581 1.0000581 1 28 28 28 784
800	195810 22 804 804 1.0000581 1.0000581 1 46 46 46 2116
801	195832 22 804 804 1.0000581 1.0000581 1 64 64 64 4096
802	195854 42 804 804 1.0000581 1.0000581 2 0 1 1 1
803	195896 22 804 804 1.0000581 1.0000581 1 64 64 64 4096
804	195918 21 804 804 1.0000581 1.0000581 1 0 0 0 0
805	195939 23 821 821 1.00006386 1.00006386 1 64 64 64 4096
806	195962 23 822 822 1.00006391 1.00006391 1 64 64 64 4096
807	195985 23 822 822 1.00006391 1.00006391 1 64 64 64 4096
808	196008 23 823 823 1.00006391 1.00006391 1 46 46 46 2116
809	196031 92 833 836 1.00006391 1.00006391 4 64 64 256 16384
810	196123 27 842 842 1.00006972 1.00006972 1 250000 250000 250000 62500000000
811	196150 22 842 842 1.00006972 1.00006972 1 0 0 0 0
812	196172 54 842 842 1.00006972 1.00006972 2 257505 257505 515010 132617650050
813	196226 25 842 842 1.00006972 1.00006972 1 7504 7504 7504 56310016
814	196251 22 842 842 1.00006972 1.00006972 1 0 0 0 0
815	196273 25 842 842 1.00006972 1.00006972 1 7504 7504 7504 56310016
816	196298 27 842 842 1.00006972 1.00006972 1 250001 250001 250001 62500500001

