file 356273 1611260587                                          
version 2
run Ping-0-20210121-15:23:00-2976
attr configname Ping
attr datetime 20210121-15:23:00
attr experiment Ping
attr inifile 10Host_SpineLeaf.ini
attr iterationvars ""
attr iterationvarsf ""
attr measurement ""
attr network spineLeafNetwork
attr processid 2976
attr repetition 0
attr replication #0
attr resultdir results
attr runnumber 0
attr seedset 0
param **.H*.numApps 1
param **.H*.app[0].typename "\"PingApp\""
param **.H*.app[0].destAddr "\"H10\""
param **.H*.app[0].count 10
param *.Visualizer.interfaceTableVisualizer.displayInterfaceTables true
param *.Visualizer.interfaceTableVisualizer.textColor "\"white\""
param *.Visualizer.interfaceTableVisualizer.displayBackground true
param *.Visualizer.interfaceTableVisualizer.displayWiredInterfacesAtConnections false
param *.Visualizer.interfaceTableVisualizer.backgroundColor "\"black\""
param *.Visualizer.interfaceTableVisualizer.opacity 0.75
param *.Visualizer.interfaceTableVisualizer.format "\"%N %\\\\%n/%l%\\\\%m\""
param **.configurator.config "xmldoc(\"10Host_SpineLeaf_Routing.xml\")"

vector 0 spineLeafNetwork.H4.app[0] pingTxSeq:vector ETV
attr interpolationmode none
attr title "ping tx seq, vector"
vector 1 spineLeafNetwork.H4.ipv4.arp arpRequestSent:vector(packetBytes) ETV
attr source arpRequestSent
attr title "ARP request sent, vector(packetBytes)"
vector 2 spineLeafNetwork.H4.eth[0].encap encapPk:vector(packetBytes) ETV
attr interpolationmode none
attr source encapPk
attr title "packets encapsulated, vector(packetBytes)"
vector 3 spineLeafNetwork.H4.eth[0].mac packetReceivedFromUpper:vector(packetBytes) ETV
attr interpolationmode none
attr source packetReceivedFromUpper
attr title "packet bytes from higher layer, vector(packetBytes)"
vector 4 spineLeafNetwork.H4.eth[0].mac.queue packetPushed:vector(packetBytes) ETV
attr interpolationmode none
attr title "packet pushed, vector(packetBytes)"
vector 5 spineLeafNetwork.H4.eth[0].mac.queue queueLength:vector ETV
attr interpolationmode sample-hold
attr source "count(packetPushed) - count(packetPopped) - count(packetRemoved) - count(packetDropped)"
attr title "queue length, vector"
vector 6 spineLeafNetwork.H4.eth[0].mac.queue packetPopped:vector(packetBytes) ETV
attr interpolationmode none
attr title "packet popped, vector(packetBytes)"
vector 7 spineLeafNetwork.H4.eth[0].mac.queue queueingTime:vector ETV
attr interpolationmode none
attr source queueingTime(packetPopped)
attr title "queueing times, vector"
attr unit s
vector 8 spineLeafNetwork.H4.eth[0].mac txPk:vector(packetBytes) ETV
attr interpolationmode none
attr source packetSentToLower
attr title "packets transmitted, vector(packetBytes)"
vector 9 spineLeafNetwork.leaf2.eth[3].mac rxPkOk:vector(packetBytes) ETV
attr interpolationmode none
attr source rxPkOk
attr title "packets received OK, vector(packetBytes)"
vector 10 spineLeafNetwork.leaf2.eth[3].mac passedUpPk:vector(packetBytes) ETV
attr interpolationmode none
attr source packetSentToUpper
attr title "packets passed to higher layer, vector(packetBytes)"
vector 11 spineLeafNetwork.leaf2.eth[3].encap decapPk:vector(packetBytes) ETV
attr interpolationmode none
attr source decapPk
attr title "packets decapsulated, vector(packetBytes)"
vector 12 spineLeafNetwork.leaf2.ipv4.arp arpReplySent:vector(packetBytes) ETV
attr source arpReplySent
attr title "ARP replies sent, vector(packetBytes)"
vector 13 spineLeafNetwork.leaf2.eth[3].encap encapPk:vector(packetBytes) ETV
attr interpolationmode none
attr source encapPk
attr title "packets encapsulated, vector(packetBytes)"
vector 14 spineLeafNetwork.leaf2.eth[3].mac packetReceivedFromUpper:vector(packetBytes) ETV
attr interpolationmode none
attr source packetReceivedFromUpper
attr title "packet bytes from higher layer, vector(packetBytes)"
vector 15 spineLeafNetwork.leaf2.eth[3].mac.queue packetPushed:vector(packetBytes) ETV
attr interpolationmode none
attr title "packet pushed, vector(packetBytes)"
vector 16 spineLeafNetwork.leaf2.eth[3].mac.queue queueLength:vector ETV
attr interpolationmode sample-hold
attr source "count(packetPushed) - count(packetPopped) - count(packetRemoved) - count(packetDropped)"
attr title "queue length, vector"
vector 17 spineLeafNetwork.leaf2.eth[3].mac.queue packetPopped:vector(packetBytes) ETV
attr interpolationmode none
attr title "packet popped, vector(packetBytes)"
vector 18 spineLeafNetwork.leaf2.eth[3].mac.queue queueingTime:vector ETV
attr interpolationmode none
attr source queueingTime(packetPopped)
attr title "queueing times, vector"
attr unit s
vector 19 spineLeafNetwork.leaf2.eth[3].mac txPk:vector(packetBytes) ETV
attr interpolationmode none
attr source packetSentToLower
attr title "packets transmitted, vector(packetBytes)"
vector 20 spineLeafNetwork.H4.eth[0].mac rxPkOk:vector(packetBytes) ETV
attr interpolationmode none
attr source rxPkOk
attr title "packets received OK, vector(packetBytes)"
vector 21 spineLeafNetwork.H4.eth[0].mac passedUpPk:vector(packetBytes) ETV
attr interpolationmode none
attr source packetSentToUpper
attr title "packets passed to higher layer, vector(packetBytes)"
vector 22 spineLeafNetwork.H4.eth[0].encap decapPk:vector(packetBytes) ETV
attr interpolationmode none
attr source decapPk
attr title "packets decapsulated, vector(packetBytes)"
vector 23 spineLeafNetwork.leaf2.ipv4.arp arpRequestSent:vector(packetBytes) ETV
attr source arpRequestSent
attr title "ARP request sent, vector(packetBytes)"
vector 24 spineLeafNetwork.leaf2.eth[2].encap encapPk:vector(packetBytes) ETV
attr interpolationmode none
attr source encapPk
attr title "packets encapsulated, vector(packetBytes)"
vector 25 spineLeafNetwork.leaf2.eth[2].mac packetReceivedFromUpper:vector(packetBytes) ETV
attr interpolationmode none
attr source packetReceivedFromUpper
attr title "packet bytes from higher layer, vector(packetBytes)"
vector 26 spineLeafNetwork.leaf2.eth[2].mac.queue packetPushed:vector(packetBytes) ETV
attr interpolationmode none
attr title "packet pushed, vector(packetBytes)"
vector 27 spineLeafNetwork.leaf2.eth[2].mac.queue queueLength:vector ETV
attr interpolationmode sample-hold
attr source "count(packetPushed) - count(packetPopped) - count(packetRemoved) - count(packetDropped)"
attr title "queue length, vector"
vector 28 spineLeafNetwork.leaf2.eth[2].mac.queue packetPopped:vector(packetBytes) ETV
attr interpolationmode none
attr title "packet popped, vector(packetBytes)"
vector 29 spineLeafNetwork.leaf2.eth[2].mac.queue queueingTime:vector ETV
attr interpolationmode none
attr source queueingTime(packetPopped)
attr title "queueing times, vector"
attr unit s
vector 30 spineLeafNetwork.leaf2.eth[2].mac txPk:vector(packetBytes) ETV
attr interpolationmode none
attr source packetSentToLower
attr title "packets transmitted, vector(packetBytes)"
vector 31 spineLeafNetwork.spine3.eth[1].mac rxPkOk:vector(packetBytes) ETV
attr interpolationmode none
attr source rxPkOk
attr title "packets received OK, vector(packetBytes)"
vector 32 spineLeafNetwork.spine3.eth[1].mac passedUpPk:vector(packetBytes) ETV
attr interpolationmode none
attr source packetSentToUpper
attr title "packets passed to higher layer, vector(packetBytes)"
vector 33 spineLeafNetwork.spine3.eth[1].encap decapPk:vector(packetBytes) ETV
attr interpolationmode none
attr source decapPk
attr title "packets decapsulated, vector(packetBytes)"
vector 34 spineLeafNetwork.spine3.ipv4.arp arpReplySent:vector(packetBytes) ETV
attr source arpReplySent
attr title "ARP replies sent, vector(packetBytes)"
vector 35 spineLeafNetwork.spine3.eth[1].encap encapPk:vector(packetBytes) ETV
attr interpolationmode none
attr source encapPk
attr title "packets encapsulated, vector(packetBytes)"
vector 36 spineLeafNetwork.spine3.eth[1].mac packetReceivedFromUpper:vector(packetBytes) ETV
attr interpolationmode none
attr source packetReceivedFromUpper
attr title "packet bytes from higher layer, vector(packetBytes)"
vector 37 spineLeafNetwork.spine3.eth[1].mac.queue packetPushed:vector(packetBytes) ETV
attr interpolationmode none
attr title "packet pushed, vector(packetBytes)"
vector 38 spineLeafNetwork.spine3.eth[1].mac.queue queueLength:vector ETV
attr interpolationmode sample-hold
attr source "count(packetPushed) - count(packetPopped) - count(packetRemoved) - count(packetDropped)"
attr title "queue length, vector"
vector 39 spineLeafNetwork.spine3.eth[1].mac.queue packetPopped:vector(packetBytes) ETV
attr interpolationmode none
attr title "packet popped, vector(packetBytes)"
vector 40 spineLeafNetwork.spine3.eth[1].mac.queue queueingTime:vector ETV
attr interpolationmode none
attr source queueingTime(packetPopped)
attr title "queueing times, vector"
attr unit s
vector 41 spineLeafNetwork.spine3.eth[1].mac txPk:vector(packetBytes) ETV
attr interpolationmode none
attr source packetSentToLower
attr title "packets transmitted, vector(packetBytes)"
vector 42 spineLeafNetwork.leaf2.eth[2].mac rxPkOk:vector(packetBytes) ETV
attr interpolationmode none
attr source rxPkOk
attr title "packets received OK, vector(packetBytes)"
vector 43 spineLeafNetwork.leaf2.eth[2].mac passedUpPk:vector(packetBytes) ETV
attr interpolationmode none
attr source packetSentToUpper
attr title "packets passed to higher layer, vector(packetBytes)"
vector 44 spineLeafNetwork.leaf2.eth[2].encap decapPk:vector(packetBytes) ETV
attr interpolationmode none
attr source decapPk
attr title "packets decapsulated, vector(packetBytes)"
vector 45 spineLeafNetwork.spine3.ipv4.arp arpRequestSent:vector(packetBytes) ETV
attr source arpRequestSent
attr title "ARP request sent, vector(packetBytes)"
vector 46 spineLeafNetwork.spine3.eth[3].encap encapPk:vector(packetBytes) ETV
attr interpolationmode none
attr source encapPk
attr title "packets encapsulated, vector(packetBytes)"
vector 47 spineLeafNetwork.spine3.eth[3].mac packetReceivedFromUpper:vector(packetBytes) ETV
attr interpolationmode none
attr source packetReceivedFromUpper
attr title "packet bytes from higher layer, vector(packetBytes)"
vector 48 spineLeafNetwork.spine3.eth[3].mac.queue packetPushed:vector(packetBytes) ETV
attr interpolationmode none
attr title "packet pushed, vector(packetBytes)"
vector 49 spineLeafNetwork.spine3.eth[3].mac.queue queueLength:vector ETV
attr interpolationmode sample-hold
attr source "count(packetPushed) - count(packetPopped) - count(packetRemoved) - count(packetDropped)"
attr title "queue length, vector"
vector 50 spineLeafNetwork.spine3.eth[3].mac.queue packetPopped:vector(packetBytes) ETV
attr interpolationmode none
attr title "packet popped, vector(packetBytes)"
vector 51 spineLeafNetwork.spine3.eth[3].mac.queue queueingTime:vector ETV
attr interpolationmode none
attr source queueingTime(packetPopped)
attr title "queueing times, vector"
attr unit s
vector 52 spineLeafNetwork.spine3.eth[3].mac txPk:vector(packetBytes) ETV
attr interpolationmode none
attr source packetSentToLower
attr title "packets transmitted, vector(packetBytes)"
vector 53 spineLeafNetwork.leaf4.eth[2].mac rxPkOk:vector(packetBytes) ETV
attr interpolationmode none
attr source rxPkOk
attr title "packets received OK, vector(packetBytes)"
vector 54 spineLeafNetwork.leaf4.eth[2].mac passedUpPk:vector(packetBytes) ETV
attr interpolationmode none
attr source packetSentToUpper
attr title "packets passed to higher layer, vector(packetBytes)"
vector 55 spineLeafNetwork.leaf4.eth[2].encap decapPk:vector(packetBytes) ETV
attr interpolationmode none
attr source decapPk
attr title "packets decapsulated, vector(packetBytes)"
vector 56 spineLeafNetwork.leaf4.ipv4.arp arpReplySent:vector(packetBytes) ETV
attr source arpReplySent
attr title "ARP replies sent, vector(packetBytes)"
vector 57 spineLeafNetwork.leaf4.eth[2].encap encapPk:vector(packetBytes) ETV
attr interpolationmode none
attr source encapPk
attr title "packets encapsulated, vector(packetBytes)"
vector 58 spineLeafNetwork.leaf4.eth[2].mac packetReceivedFromUpper:vector(packetBytes) ETV
attr interpolationmode none
attr source packetReceivedFromUpper
attr title "packet bytes from higher layer, vector(packetBytes)"
vector 59 spineLeafNetwork.leaf4.eth[2].mac.queue packetPushed:vector(packetBytes) ETV
attr interpolationmode none
attr title "packet pushed, vector(packetBytes)"
vector 60 spineLeafNetwork.leaf4.eth[2].mac.queue queueLength:vector ETV
attr interpolationmode sample-hold
attr source "count(packetPushed) - count(packetPopped) - count(packetRemoved) - count(packetDropped)"
attr title "queue length, vector"
vector 61 spineLeafNetwork.leaf4.eth[2].mac.queue packetPopped:vector(packetBytes) ETV
attr interpolationmode none
attr title "packet popped, vector(packetBytes)"
vector 62 spineLeafNetwork.leaf4.eth[2].mac.queue queueingTime:vector ETV
attr interpolationmode none
attr source queueingTime(packetPopped)
attr title "queueing times, vector"
attr unit s
vector 63 spineLeafNetwork.leaf4.eth[2].mac txPk:vector(packetBytes) ETV
attr interpolationmode none
attr source packetSentToLower
attr title "packets transmitted, vector(packetBytes)"
vector 64 spineLeafNetwork.spine3.eth[3].mac rxPkOk:vector(packetBytes) ETV
attr interpolationmode none
attr source rxPkOk
attr title "packets received OK, vector(packetBytes)"
vector 65 spineLeafNetwork.spine3.eth[3].mac passedUpPk:vector(packetBytes) ETV
attr interpolationmode none
attr source packetSentToUpper
attr title "packets passed to higher layer, vector(packetBytes)"
vector 66 spineLeafNetwork.spine3.eth[3].encap decapPk:vector(packetBytes) ETV
attr interpolationmode none
attr source decapPk
attr title "packets decapsulated, vector(packetBytes)"
vector 67 spineLeafNetwork.leaf4.ipv4.arp arpRequestSent:vector(packetBytes) ETV
attr source arpRequestSent
attr title "ARP request sent, vector(packetBytes)"
vector 68 spineLeafNetwork.leaf4.eth[3].encap encapPk:vector(packetBytes) ETV
attr interpolationmode none
attr source encapPk
attr title "packets encapsulated, vector(packetBytes)"
vector 69 spineLeafNetwork.leaf4.eth[3].mac packetReceivedFromUpper:vector(packetBytes) ETV
attr interpolationmode none
attr source packetReceivedFromUpper
attr title "packet bytes from higher layer, vector(packetBytes)"
vector 70 spineLeafNetwork.leaf4.eth[3].mac.queue packetPushed:vector(packetBytes) ETV
attr interpolationmode none
attr title "packet pushed, vector(packetBytes)"
vector 71 spineLeafNetwork.leaf4.eth[3].mac.queue queueLength:vector ETV
attr interpolationmode sample-hold
attr source "count(packetPushed) - count(packetPopped) - count(packetRemoved) - count(packetDropped)"
attr title "queue length, vector"
vector 72 spineLeafNetwork.leaf4.eth[3].mac.queue packetPopped:vector(packetBytes) ETV
attr interpolationmode none
attr title "packet popped, vector(packetBytes)"
vector 73 spineLeafNetwork.leaf4.eth[3].mac.queue queueingTime:vector ETV
attr interpolationmode none
attr source queueingTime(packetPopped)
attr title "queueing times, vector"
attr unit s
vector 74 spineLeafNetwork.leaf4.eth[3].mac txPk:vector(packetBytes) ETV
attr interpolationmode none
attr source packetSentToLower
attr title "packets transmitted, vector(packetBytes)"
vector 75 spineLeafNetwork.H10.eth[0].mac rxPkOk:vector(packetBytes) ETV
attr interpolationmode none
attr source rxPkOk
attr title "packets received OK, vector(packetBytes)"
vector 76 spineLeafNetwork.H10.eth[0].mac passedUpPk:vector(packetBytes) ETV
attr interpolationmode none
attr source packetSentToUpper
attr title "packets passed to higher layer, vector(packetBytes)"
vector 77 spineLeafNetwork.H10.eth[0].encap decapPk:vector(packetBytes) ETV
attr interpolationmode none
attr source decapPk
attr title "packets decapsulated, vector(packetBytes)"
vector 78 spineLeafNetwork.H10.ipv4.arp arpReplySent:vector(packetBytes) ETV
attr source arpReplySent
attr title "ARP replies sent, vector(packetBytes)"
vector 79 spineLeafNetwork.H10.eth[0].encap encapPk:vector(packetBytes) ETV
attr interpolationmode none
attr source encapPk
attr title "packets encapsulated, vector(packetBytes)"
vector 80 spineLeafNetwork.H10.eth[0].mac packetReceivedFromUpper:vector(packetBytes) ETV
attr interpolationmode none
attr source packetReceivedFromUpper
attr title "packet bytes from higher layer, vector(packetBytes)"
vector 81 spineLeafNetwork.H10.eth[0].mac.queue packetPushed:vector(packetBytes) ETV
attr interpolationmode none
attr title "packet pushed, vector(packetBytes)"
vector 82 spineLeafNetwork.H10.eth[0].mac.queue queueLength:vector ETV
attr interpolationmode sample-hold
attr source "count(packetPushed) - count(packetPopped) - count(packetRemoved) - count(packetDropped)"
attr title "queue length, vector"
vector 83 spineLeafNetwork.H10.eth[0].mac.queue packetPopped:vector(packetBytes) ETV
attr interpolationmode none
attr title "packet popped, vector(packetBytes)"
vector 84 spineLeafNetwork.H10.eth[0].mac.queue queueingTime:vector ETV
attr interpolationmode none
attr source queueingTime(packetPopped)
attr title "queueing times, vector"
attr unit s
vector 85 spineLeafNetwork.H10.eth[0].mac txPk:vector(packetBytes) ETV
attr interpolationmode none
attr source packetSentToLower
attr title "packets transmitted, vector(packetBytes)"
vector 86 spineLeafNetwork.leaf4.eth[3].mac rxPkOk:vector(packetBytes) ETV
attr interpolationmode none
attr source rxPkOk
attr title "packets received OK, vector(packetBytes)"
vector 87 spineLeafNetwork.leaf4.eth[3].mac passedUpPk:vector(packetBytes) ETV
attr interpolationmode none
attr source packetSentToUpper
attr title "packets passed to higher layer, vector(packetBytes)"
vector 88 spineLeafNetwork.leaf4.eth[3].encap decapPk:vector(packetBytes) ETV
attr interpolationmode none
attr source decapPk
attr title "packets decapsulated, vector(packetBytes)"
vector 89 spineLeafNetwork.leaf4.eth[1].encap encapPk:vector(packetBytes) ETV
attr interpolationmode none
attr source encapPk
attr title "packets encapsulated, vector(packetBytes)"
vector 90 spineLeafNetwork.leaf4.eth[1].mac packetReceivedFromUpper:vector(packetBytes) ETV
attr interpolationmode none
attr source packetReceivedFromUpper
attr title "packet bytes from higher layer, vector(packetBytes)"
vector 91 spineLeafNetwork.leaf4.eth[1].mac.queue packetPushed:vector(packetBytes) ETV
attr interpolationmode none
attr title "packet pushed, vector(packetBytes)"
vector 92 spineLeafNetwork.leaf4.eth[1].mac.queue queueLength:vector ETV
attr interpolationmode sample-hold
attr source "count(packetPushed) - count(packetPopped) - count(packetRemoved) - count(packetDropped)"
attr title "queue length, vector"
vector 93 spineLeafNetwork.leaf4.eth[1].mac.queue packetPopped:vector(packetBytes) ETV
attr interpolationmode none
attr title "packet popped, vector(packetBytes)"
vector 94 spineLeafNetwork.leaf4.eth[1].mac.queue queueingTime:vector ETV
attr interpolationmode none
attr source queueingTime(packetPopped)
attr title "queueing times, vector"
attr unit s
vector 95 spineLeafNetwork.leaf4.eth[1].mac txPk:vector(packetBytes) ETV
attr interpolationmode none
attr source packetSentToLower
attr title "packets transmitted, vector(packetBytes)"
vector 96 spineLeafNetwork.spine2.eth[3].mac rxPkOk:vector(packetBytes) ETV
attr interpolationmode none
attr source rxPkOk
attr title "packets received OK, vector(packetBytes)"
vector 97 spineLeafNetwork.spine2.eth[3].mac passedUpPk:vector(packetBytes) ETV
attr interpolationmode none
attr source packetSentToUpper
attr title "packets passed to higher layer, vector(packetBytes)"
vector 98 spineLeafNetwork.spine2.eth[3].encap decapPk:vector(packetBytes) ETV
attr interpolationmode none
attr source decapPk
attr title "packets decapsulated, vector(packetBytes)"
vector 99 spineLeafNetwork.spine2.ipv4.arp arpReplySent:vector(packetBytes) ETV
attr source arpReplySent
attr title "ARP replies sent, vector(packetBytes)"
vector 100 spineLeafNetwork.spine2.eth[3].encap encapPk:vector(packetBytes) ETV
attr interpolationmode none
attr source encapPk
attr title "packets encapsulated, vector(packetBytes)"
vector 101 spineLeafNetwork.spine2.eth[3].mac packetReceivedFromUpper:vector(packetBytes) ETV
attr interpolationmode none
attr source packetReceivedFromUpper
attr title "packet bytes from higher layer, vector(packetBytes)"
vector 102 spineLeafNetwork.spine2.eth[3].mac.queue packetPushed:vector(packetBytes) ETV
attr interpolationmode none
attr title "packet pushed, vector(packetBytes)"
vector 103 spineLeafNetwork.spine2.eth[3].mac.queue queueLength:vector ETV
attr interpolationmode sample-hold
attr source "count(packetPushed) - count(packetPopped) - count(packetRemoved) - count(packetDropped)"
attr title "queue length, vector"
vector 104 spineLeafNetwork.spine2.eth[3].mac.queue packetPopped:vector(packetBytes) ETV
attr interpolationmode none
attr title "packet popped, vector(packetBytes)"
vector 105 spineLeafNetwork.spine2.eth[3].mac.queue queueingTime:vector ETV
attr interpolationmode none
attr source queueingTime(packetPopped)
attr title "queueing times, vector"
attr unit s
vector 106 spineLeafNetwork.spine2.eth[3].mac txPk:vector(packetBytes) ETV
attr interpolationmode none
attr source packetSentToLower
attr title "packets transmitted, vector(packetBytes)"
vector 107 spineLeafNetwork.leaf4.eth[1].mac rxPkOk:vector(packetBytes) ETV
attr interpolationmode none
attr source rxPkOk
attr title "packets received OK, vector(packetBytes)"
vector 108 spineLeafNetwork.leaf4.eth[1].mac passedUpPk:vector(packetBytes) ETV
attr interpolationmode none
attr source packetSentToUpper
attr title "packets passed to higher layer, vector(packetBytes)"
vector 109 spineLeafNetwork.leaf4.eth[1].encap decapPk:vector(packetBytes) ETV
attr interpolationmode none
attr source decapPk
attr title "packets decapsulated, vector(packetBytes)"
vector 110 spineLeafNetwork.spine2.ipv4.arp arpRequestSent:vector(packetBytes) ETV
attr source arpRequestSent
attr title "ARP request sent, vector(packetBytes)"
vector 111 spineLeafNetwork.spine2.eth[1].encap encapPk:vector(packetBytes) ETV
attr interpolationmode none
attr source encapPk
attr title "packets encapsulated, vector(packetBytes)"
vector 112 spineLeafNetwork.spine2.eth[1].mac packetReceivedFromUpper:vector(packetBytes) ETV
attr interpolationmode none
attr source packetReceivedFromUpper
attr title "packet bytes from higher layer, vector(packetBytes)"
vector 113 spineLeafNetwork.spine2.eth[1].mac.queue packetPushed:vector(packetBytes) ETV
attr interpolationmode none
attr title "packet pushed, vector(packetBytes)"
vector 114 spineLeafNetwork.spine2.eth[1].mac.queue queueLength:vector ETV
attr interpolationmode sample-hold
attr source "count(packetPushed) - count(packetPopped) - count(packetRemoved) - count(packetDropped)"
attr title "queue length, vector"
vector 115 spineLeafNetwork.spine2.eth[1].mac.queue packetPopped:vector(packetBytes) ETV
attr interpolationmode none
attr title "packet popped, vector(packetBytes)"
vector 116 spineLeafNetwork.spine2.eth[1].mac.queue queueingTime:vector ETV
attr interpolationmode none
attr source queueingTime(packetPopped)
attr title "queueing times, vector"
attr unit s
vector 117 spineLeafNetwork.spine2.eth[1].mac txPk:vector(packetBytes) ETV
attr interpolationmode none
attr source packetSentToLower
attr title "packets transmitted, vector(packetBytes)"
vector 118 spineLeafNetwork.leaf2.eth[1].mac rxPkOk:vector(packetBytes) ETV
attr interpolationmode none
attr source rxPkOk
attr title "packets received OK, vector(packetBytes)"
vector 119 spineLeafNetwork.leaf2.eth[1].mac passedUpPk:vector(packetBytes) ETV
attr interpolationmode none
attr source packetSentToUpper
attr title "packets passed to higher layer, vector(packetBytes)"
vector 120 spineLeafNetwork.leaf2.eth[1].encap decapPk:vector(packetBytes) ETV
attr interpolationmode none
attr source decapPk
attr title "packets decapsulated, vector(packetBytes)"
vector 121 spineLeafNetwork.leaf2.eth[1].encap encapPk:vector(packetBytes) ETV
attr interpolationmode none
attr source encapPk
attr title "packets encapsulated, vector(packetBytes)"
vector 122 spineLeafNetwork.leaf2.eth[1].mac packetReceivedFromUpper:vector(packetBytes) ETV
attr interpolationmode none
attr source packetReceivedFromUpper
attr title "packet bytes from higher layer, vector(packetBytes)"
vector 123 spineLeafNetwork.leaf2.eth[1].mac.queue packetPushed:vector(packetBytes) ETV
attr interpolationmode none
attr title "packet pushed, vector(packetBytes)"
vector 124 spineLeafNetwork.leaf2.eth[1].mac.queue queueLength:vector ETV
attr interpolationmode sample-hold
attr source "count(packetPushed) - count(packetPopped) - count(packetRemoved) - count(packetDropped)"
attr title "queue length, vector"
vector 125 spineLeafNetwork.leaf2.eth[1].mac.queue packetPopped:vector(packetBytes) ETV
attr interpolationmode none
attr title "packet popped, vector(packetBytes)"
vector 126 spineLeafNetwork.leaf2.eth[1].mac.queue queueingTime:vector ETV
attr interpolationmode none
attr source queueingTime(packetPopped)
attr title "queueing times, vector"
attr unit s
vector 127 spineLeafNetwork.leaf2.eth[1].mac txPk:vector(packetBytes) ETV
attr interpolationmode none
attr source packetSentToLower
attr title "packets transmitted, vector(packetBytes)"
vector 128 spineLeafNetwork.spine2.eth[1].mac rxPkOk:vector(packetBytes) ETV
attr interpolationmode none
attr source rxPkOk
attr title "packets received OK, vector(packetBytes)"
vector 129 spineLeafNetwork.spine2.eth[1].mac passedUpPk:vector(packetBytes) ETV
attr interpolationmode none
attr source packetSentToUpper
attr title "packets passed to higher layer, vector(packetBytes)"
vector 130 spineLeafNetwork.spine2.eth[1].encap decapPk:vector(packetBytes) ETV
attr interpolationmode none
attr source decapPk
attr title "packets decapsulated, vector(packetBytes)"
vector 131 spineLeafNetwork.H4.app[0] pingRxSeq:vector ETV
attr interpolationmode none
attr title "ping rx seq, vector"
vector 132 spineLeafNetwork.H4.app[0] rtt:vector ETV
attr interpolationmode none
attr title "ping round-trip time, vector"
attr unit s
vector 133 spineLeafNetwork.H6.app[0] pingTxSeq:vector ETV
attr interpolationmode none
attr title "ping tx seq, vector"
vector 134 spineLeafNetwork.H6.ipv4.arp arpRequestSent:vector(packetBytes) ETV
attr source arpRequestSent
attr title "ARP request sent, vector(packetBytes)"
vector 135 spineLeafNetwork.H6.eth[0].encap encapPk:vector(packetBytes) ETV
attr interpolationmode none
attr source encapPk
attr title "packets encapsulated, vector(packetBytes)"
vector 136 spineLeafNetwork.H6.eth[0].mac packetReceivedFromUpper:vector(packetBytes) ETV
attr interpolationmode none
attr source packetReceivedFromUpper
attr title "packet bytes from higher layer, vector(packetBytes)"
vector 137 spineLeafNetwork.H6.eth[0].mac.queue packetPushed:vector(packetBytes) ETV
attr interpolationmode none
attr title "packet pushed, vector(packetBytes)"
vector 138 spineLeafNetwork.H6.eth[0].mac.queue queueLength:vector ETV
attr interpolationmode sample-hold
attr source "count(packetPushed) - count(packetPopped) - count(packetRemoved) - count(packetDropped)"
attr title "queue length, vector"
vector 139 spineLeafNetwork.H6.eth[0].mac.queue packetPopped:vector(packetBytes) ETV
attr interpolationmode none
attr title "packet popped, vector(packetBytes)"
vector 140 spineLeafNetwork.H6.eth[0].mac.queue queueingTime:vector ETV
attr interpolationmode none
attr source queueingTime(packetPopped)
attr title "queueing times, vector"
attr unit s
vector 141 spineLeafNetwork.H6.eth[0].mac txPk:vector(packetBytes) ETV
attr interpolationmode none
attr source packetSentToLower
attr title "packets transmitted, vector(packetBytes)"
vector 142 spineLeafNetwork.leaf2.eth[5].mac rxPkOk:vector(packetBytes) ETV
attr interpolationmode none
attr source rxPkOk
attr title "packets received OK, vector(packetBytes)"
vector 143 spineLeafNetwork.leaf2.eth[5].mac passedUpPk:vector(packetBytes) ETV
attr interpolationmode none
attr source packetSentToUpper
attr title "packets passed to higher layer, vector(packetBytes)"
vector 144 spineLeafNetwork.leaf2.eth[5].encap decapPk:vector(packetBytes) ETV
attr interpolationmode none
attr source decapPk
attr title "packets decapsulated, vector(packetBytes)"
vector 145 spineLeafNetwork.leaf2.eth[5].encap encapPk:vector(packetBytes) ETV
attr interpolationmode none
attr source encapPk
attr title "packets encapsulated, vector(packetBytes)"
vector 146 spineLeafNetwork.leaf2.eth[5].mac packetReceivedFromUpper:vector(packetBytes) ETV
attr interpolationmode none
attr source packetReceivedFromUpper
attr title "packet bytes from higher layer, vector(packetBytes)"
vector 147 spineLeafNetwork.leaf2.eth[5].mac.queue packetPushed:vector(packetBytes) ETV
attr interpolationmode none
attr title "packet pushed, vector(packetBytes)"
vector 148 spineLeafNetwork.leaf2.eth[5].mac.queue queueLength:vector ETV
attr interpolationmode sample-hold
attr source "count(packetPushed) - count(packetPopped) - count(packetRemoved) - count(packetDropped)"
attr title "queue length, vector"
vector 149 spineLeafNetwork.leaf2.eth[5].mac.queue packetPopped:vector(packetBytes) ETV
attr interpolationmode none
attr title "packet popped, vector(packetBytes)"
vector 150 spineLeafNetwork.leaf2.eth[5].mac.queue queueingTime:vector ETV
attr interpolationmode none
attr source queueingTime(packetPopped)
attr title "queueing times, vector"
attr unit s
vector 151 spineLeafNetwork.leaf2.eth[5].mac txPk:vector(packetBytes) ETV
attr interpolationmode none
attr source packetSentToLower
attr title "packets transmitted, vector(packetBytes)"
vector 152 spineLeafNetwork.H6.eth[0].mac rxPkOk:vector(packetBytes) ETV
attr interpolationmode none
attr source rxPkOk
attr title "packets received OK, vector(packetBytes)"
vector 153 spineLeafNetwork.H6.eth[0].mac passedUpPk:vector(packetBytes) ETV
attr interpolationmode none
attr source packetSentToUpper
attr title "packets passed to higher layer, vector(packetBytes)"
vector 154 spineLeafNetwork.H6.eth[0].encap decapPk:vector(packetBytes) ETV
attr interpolationmode none
attr source decapPk
attr title "packets decapsulated, vector(packetBytes)"
vector 155 spineLeafNetwork.H6.app[0] pingRxSeq:vector ETV
attr interpolationmode none
attr title "ping rx seq, vector"
vector 156 spineLeafNetwork.H6.app[0] rtt:vector ETV
attr interpolationmode none
attr title "ping round-trip time, vector"
attr unit s
vector 157 spineLeafNetwork.H2.app[0] pingTxSeq:vector ETV
attr interpolationmode none
attr title "ping tx seq, vector"
vector 158 spineLeafNetwork.H2.ipv4.arp arpRequestSent:vector(packetBytes) ETV
attr source arpRequestSent
attr title "ARP request sent, vector(packetBytes)"
vector 159 spineLeafNetwork.H2.eth[0].encap encapPk:vector(packetBytes) ETV
attr interpolationmode none
attr source encapPk
attr title "packets encapsulated, vector(packetBytes)"
vector 160 spineLeafNetwork.H2.eth[0].mac packetReceivedFromUpper:vector(packetBytes) ETV
attr interpolationmode none
attr source packetReceivedFromUpper
attr title "packet bytes from higher layer, vector(packetBytes)"
vector 161 spineLeafNetwork.H2.eth[0].mac.queue packetPushed:vector(packetBytes) ETV
attr interpolationmode none
attr title "packet pushed, vector(packetBytes)"
vector 162 spineLeafNetwork.H2.eth[0].mac.queue queueLength:vector ETV
attr interpolationmode sample-hold
attr source "count(packetPushed) - count(packetPopped) - count(packetRemoved) - count(packetDropped)"
attr title "queue length, vector"
vector 163 spineLeafNetwork.H2.eth[0].mac.queue packetPopped:vector(packetBytes) ETV
attr interpolationmode none
attr title "packet popped, vector(packetBytes)"
vector 164 spineLeafNetwork.H2.eth[0].mac.queue queueingTime:vector ETV
attr interpolationmode none
attr source queueingTime(packetPopped)
attr title "queueing times, vector"
attr unit s
vector 165 spineLeafNetwork.H2.eth[0].mac txPk:vector(packetBytes) ETV
attr interpolationmode none
attr source packetSentToLower
attr title "packets transmitted, vector(packetBytes)"
vector 166 spineLeafNetwork.leaf1.eth[4].mac rxPkOk:vector(packetBytes) ETV
attr interpolationmode none
attr source rxPkOk
attr title "packets received OK, vector(packetBytes)"
vector 167 spineLeafNetwork.leaf1.eth[4].mac passedUpPk:vector(packetBytes) ETV
attr interpolationmode none
attr source packetSentToUpper
attr title "packets passed to higher layer, vector(packetBytes)"
vector 168 spineLeafNetwork.leaf1.eth[4].encap decapPk:vector(packetBytes) ETV
attr interpolationmode none
attr source decapPk
attr title "packets decapsulated, vector(packetBytes)"
vector 169 spineLeafNetwork.leaf1.ipv4.arp arpReplySent:vector(packetBytes) ETV
attr source arpReplySent
attr title "ARP replies sent, vector(packetBytes)"
vector 170 spineLeafNetwork.leaf1.eth[4].encap encapPk:vector(packetBytes) ETV
attr interpolationmode none
attr source encapPk
attr title "packets encapsulated, vector(packetBytes)"
vector 171 spineLeafNetwork.leaf1.eth[4].mac packetReceivedFromUpper:vector(packetBytes) ETV
attr interpolationmode none
attr source packetReceivedFromUpper
attr title "packet bytes from higher layer, vector(packetBytes)"
vector 172 spineLeafNetwork.leaf1.eth[4].mac.queue packetPushed:vector(packetBytes) ETV
attr interpolationmode none
attr title "packet pushed, vector(packetBytes)"
vector 173 spineLeafNetwork.leaf1.eth[4].mac.queue queueLength:vector ETV
attr interpolationmode sample-hold
attr source "count(packetPushed) - count(packetPopped) - count(packetRemoved) - count(packetDropped)"
attr title "queue length, vector"
vector 174 spineLeafNetwork.leaf1.eth[4].mac.queue packetPopped:vector(packetBytes) ETV
attr interpolationmode none
attr title "packet popped, vector(packetBytes)"
vector 175 spineLeafNetwork.leaf1.eth[4].mac.queue queueingTime:vector ETV
attr interpolationmode none
attr source queueingTime(packetPopped)
attr title "queueing times, vector"
attr unit s
vector 176 spineLeafNetwork.leaf1.eth[4].mac txPk:vector(packetBytes) ETV
attr interpolationmode none
attr source packetSentToLower
attr title "packets transmitted, vector(packetBytes)"
vector 177 spineLeafNetwork.H2.eth[0].mac rxPkOk:vector(packetBytes) ETV
attr interpolationmode none
attr source rxPkOk
attr title "packets received OK, vector(packetBytes)"
vector 178 spineLeafNetwork.H2.eth[0].mac passedUpPk:vector(packetBytes) ETV
attr interpolationmode none
attr source packetSentToUpper
attr title "packets passed to higher layer, vector(packetBytes)"
vector 179 spineLeafNetwork.H2.eth[0].encap decapPk:vector(packetBytes) ETV
attr interpolationmode none
attr source decapPk
attr title "packets decapsulated, vector(packetBytes)"
vector 180 spineLeafNetwork.leaf1.ipv4.arp arpRequestSent:vector(packetBytes) ETV
attr source arpRequestSent
attr title "ARP request sent, vector(packetBytes)"
vector 181 spineLeafNetwork.leaf1.eth[0].encap encapPk:vector(packetBytes) ETV
attr interpolationmode none
attr source encapPk
attr title "packets encapsulated, vector(packetBytes)"
vector 182 spineLeafNetwork.leaf1.eth[0].mac packetReceivedFromUpper:vector(packetBytes) ETV
attr interpolationmode none
attr source packetReceivedFromUpper
attr title "packet bytes from higher layer, vector(packetBytes)"
vector 183 spineLeafNetwork.leaf1.eth[0].mac.queue packetPushed:vector(packetBytes) ETV
attr interpolationmode none
attr title "packet pushed, vector(packetBytes)"
vector 184 spineLeafNetwork.leaf1.eth[0].mac.queue queueLength:vector ETV
attr interpolationmode sample-hold
attr source "count(packetPushed) - count(packetPopped) - count(packetRemoved) - count(packetDropped)"
attr title "queue length, vector"
vector 185 spineLeafNetwork.leaf1.eth[0].mac.queue packetPopped:vector(packetBytes) ETV
attr interpolationmode none
attr title "packet popped, vector(packetBytes)"
vector 186 spineLeafNetwork.leaf1.eth[0].mac.queue queueingTime:vector ETV
attr interpolationmode none
attr source queueingTime(packetPopped)
attr title "queueing times, vector"
attr unit s
vector 187 spineLeafNetwork.leaf1.eth[0].mac txPk:vector(packetBytes) ETV
attr interpolationmode none
attr source packetSentToLower
attr title "packets transmitted, vector(packetBytes)"
vector 188 spineLeafNetwork.spine1.eth[0].mac rxPkOk:vector(packetBytes) ETV
attr interpolationmode none
attr source rxPkOk
attr title "packets received OK, vector(packetBytes)"
vector 189 spineLeafNetwork.spine1.eth[0].mac passedUpPk:vector(packetBytes) ETV
attr interpolationmode none
attr source packetSentToUpper
attr title "packets passed to higher layer, vector(packetBytes)"
vector 190 spineLeafNetwork.spine1.eth[0].encap decapPk:vector(packetBytes) ETV
attr interpolationmode none
attr source decapPk
attr title "packets decapsulated, vector(packetBytes)"
vector 191 spineLeafNetwork.spine1.ipv4.arp arpReplySent:vector(packetBytes) ETV
attr source arpReplySent
attr title "ARP replies sent, vector(packetBytes)"
vector 192 spineLeafNetwork.spine1.eth[0].encap encapPk:vector(packetBytes) ETV
attr interpolationmode none
attr source encapPk
attr title "packets encapsulated, vector(packetBytes)"
vector 193 spineLeafNetwork.spine1.eth[0].mac packetReceivedFromUpper:vector(packetBytes) ETV
attr interpolationmode none
attr source packetReceivedFromUpper
attr title "packet bytes from higher layer, vector(packetBytes)"
vector 194 spineLeafNetwork.spine1.eth[0].mac.queue packetPushed:vector(packetBytes) ETV
attr interpolationmode none
attr title "packet pushed, vector(packetBytes)"
vector 195 spineLeafNetwork.spine1.eth[0].mac.queue queueLength:vector ETV
attr interpolationmode sample-hold
attr source "count(packetPushed) - count(packetPopped) - count(packetRemoved) - count(packetDropped)"
attr title "queue length, vector"
vector 196 spineLeafNetwork.spine1.eth[0].mac.queue packetPopped:vector(packetBytes) ETV
attr interpolationmode none
attr title "packet popped, vector(packetBytes)"
vector 197 spineLeafNetwork.spine1.eth[0].mac.queue queueingTime:vector ETV
attr interpolationmode none
attr source queueingTime(packetPopped)
attr title "queueing times, vector"
attr unit s
vector 198 spineLeafNetwork.spine1.eth[0].mac txPk:vector(packetBytes) ETV
attr interpolationmode none
attr source packetSentToLower
attr title "packets transmitted, vector(packetBytes)"
vector 199 spineLeafNetwork.leaf1.eth[0].mac rxPkOk:vector(packetBytes) ETV
attr interpolationmode none
attr source rxPkOk
attr title "packets received OK, vector(packetBytes)"
vector 200 spineLeafNetwork.leaf1.eth[0].mac passedUpPk:vector(packetBytes) ETV
attr interpolationmode none
attr source packetSentToUpper
attr title "packets passed to higher layer, vector(packetBytes)"
vector 201 spineLeafNetwork.leaf1.eth[0].encap decapPk:vector(packetBytes) ETV
attr interpolationmode none
attr source decapPk
attr title "packets decapsulated, vector(packetBytes)"
vector 202 spineLeafNetwork.spine1.ipv4.arp arpRequestSent:vector(packetBytes) ETV
attr source arpRequestSent
attr title "ARP request sent, vector(packetBytes)"
vector 203 spineLeafNetwork.spine1.eth[3].encap encapPk:vector(packetBytes) ETV
attr interpolationmode none
attr source encapPk
attr title "packets encapsulated, vector(packetBytes)"
vector 204 spineLeafNetwork.spine1.eth[3].mac packetReceivedFromUpper:vector(packetBytes) ETV
attr interpolationmode none
attr source packetReceivedFromUpper
attr title "packet bytes from higher layer, vector(packetBytes)"
vector 205 spineLeafNetwork.spine1.eth[3].mac.queue packetPushed:vector(packetBytes) ETV
attr interpolationmode none
attr title "packet pushed, vector(packetBytes)"
vector 206 spineLeafNetwork.spine1.eth[3].mac.queue queueLength:vector ETV
attr interpolationmode sample-hold
attr source "count(packetPushed) - count(packetPopped) - count(packetRemoved) - count(packetDropped)"
attr title "queue length, vector"
vector 207 spineLeafNetwork.spine1.eth[3].mac.queue packetPopped:vector(packetBytes) ETV
attr interpolationmode none
attr title "packet popped, vector(packetBytes)"
vector 208 spineLeafNetwork.spine1.eth[3].mac.queue queueingTime:vector ETV
attr interpolationmode none
attr source queueingTime(packetPopped)
attr title "queueing times, vector"
attr unit s
vector 209 spineLeafNetwork.spine1.eth[3].mac txPk:vector(packetBytes) ETV
attr interpolationmode none
attr source packetSentToLower
attr title "packets transmitted, vector(packetBytes)"
vector 210 spineLeafNetwork.leaf4.eth[0].mac rxPkOk:vector(packetBytes) ETV
attr interpolationmode none
attr source rxPkOk
attr title "packets received OK, vector(packetBytes)"
vector 211 spineLeafNetwork.leaf4.eth[0].mac passedUpPk:vector(packetBytes) ETV
attr interpolationmode none
attr source packetSentToUpper
attr title "packets passed to higher layer, vector(packetBytes)"
vector 212 spineLeafNetwork.leaf4.eth[0].encap decapPk:vector(packetBytes) ETV
attr interpolationmode none
attr source decapPk
attr title "packets decapsulated, vector(packetBytes)"
vector 213 spineLeafNetwork.leaf4.eth[0].encap encapPk:vector(packetBytes) ETV
attr interpolationmode none
attr source encapPk
attr title "packets encapsulated, vector(packetBytes)"
vector 214 spineLeafNetwork.leaf4.eth[0].mac packetReceivedFromUpper:vector(packetBytes) ETV
attr interpolationmode none
attr source packetReceivedFromUpper
attr title "packet bytes from higher layer, vector(packetBytes)"
vector 215 spineLeafNetwork.leaf4.eth[0].mac.queue packetPushed:vector(packetBytes) ETV
attr interpolationmode none
attr title "packet pushed, vector(packetBytes)"
vector 216 spineLeafNetwork.leaf4.eth[0].mac.queue queueLength:vector ETV
attr interpolationmode sample-hold
attr source "count(packetPushed) - count(packetPopped) - count(packetRemoved) - count(packetDropped)"
attr title "queue length, vector"
vector 217 spineLeafNetwork.leaf4.eth[0].mac.queue packetPopped:vector(packetBytes) ETV
attr interpolationmode none
attr title "packet popped, vector(packetBytes)"
vector 218 spineLeafNetwork.leaf4.eth[0].mac.queue queueingTime:vector ETV
attr interpolationmode none
attr source queueingTime(packetPopped)
attr title "queueing times, vector"
attr unit s
vector 219 spineLeafNetwork.leaf4.eth[0].mac txPk:vector(packetBytes) ETV
attr interpolationmode none
attr source packetSentToLower
attr title "packets transmitted, vector(packetBytes)"
vector 220 spineLeafNetwork.spine1.eth[3].mac rxPkOk:vector(packetBytes) ETV
attr interpolationmode none
attr source rxPkOk
attr title "packets received OK, vector(packetBytes)"
vector 221 spineLeafNetwork.spine1.eth[3].mac passedUpPk:vector(packetBytes) ETV
attr interpolationmode none
attr source packetSentToUpper
attr title "packets passed to higher layer, vector(packetBytes)"
vector 222 spineLeafNetwork.spine1.eth[3].encap decapPk:vector(packetBytes) ETV
attr interpolationmode none
attr source decapPk
attr title "packets decapsulated, vector(packetBytes)"
vector 223 spineLeafNetwork.spine3.eth[0].encap encapPk:vector(packetBytes) ETV
attr interpolationmode none
attr source encapPk
attr title "packets encapsulated, vector(packetBytes)"
vector 224 spineLeafNetwork.spine3.eth[0].mac packetReceivedFromUpper:vector(packetBytes) ETV
attr interpolationmode none
attr source packetReceivedFromUpper
attr title "packet bytes from higher layer, vector(packetBytes)"
vector 225 spineLeafNetwork.spine3.eth[0].mac.queue packetPushed:vector(packetBytes) ETV
attr interpolationmode none
attr title "packet pushed, vector(packetBytes)"
vector 226 spineLeafNetwork.spine3.eth[0].mac.queue queueLength:vector ETV
attr interpolationmode sample-hold
attr source "count(packetPushed) - count(packetPopped) - count(packetRemoved) - count(packetDropped)"
attr title "queue length, vector"
vector 227 spineLeafNetwork.spine3.eth[0].mac.queue packetPopped:vector(packetBytes) ETV
attr interpolationmode none
attr title "packet popped, vector(packetBytes)"
vector 228 spineLeafNetwork.spine3.eth[0].mac.queue queueingTime:vector ETV
attr interpolationmode none
attr source queueingTime(packetPopped)
attr title "queueing times, vector"
attr unit s
vector 229 spineLeafNetwork.spine3.eth[0].mac txPk:vector(packetBytes) ETV
attr interpolationmode none
attr source packetSentToLower
attr title "packets transmitted, vector(packetBytes)"
vector 230 spineLeafNetwork.leaf1.eth[2].mac rxPkOk:vector(packetBytes) ETV
attr interpolationmode none
attr source rxPkOk
attr title "packets received OK, vector(packetBytes)"
vector 231 spineLeafNetwork.leaf1.eth[2].mac passedUpPk:vector(packetBytes) ETV
attr interpolationmode none
attr source packetSentToUpper
attr title "packets passed to higher layer, vector(packetBytes)"
vector 232 spineLeafNetwork.leaf1.eth[2].encap decapPk:vector(packetBytes) ETV
attr interpolationmode none
attr source decapPk
attr title "packets decapsulated, vector(packetBytes)"
vector 233 spineLeafNetwork.leaf1.eth[2].encap encapPk:vector(packetBytes) ETV
attr interpolationmode none
attr source encapPk
attr title "packets encapsulated, vector(packetBytes)"
vector 234 spineLeafNetwork.leaf1.eth[2].mac packetReceivedFromUpper:vector(packetBytes) ETV
attr interpolationmode none
attr source packetReceivedFromUpper
attr title "packet bytes from higher layer, vector(packetBytes)"
vector 235 spineLeafNetwork.leaf1.eth[2].mac.queue packetPushed:vector(packetBytes) ETV
attr interpolationmode none
attr title "packet pushed, vector(packetBytes)"
vector 236 spineLeafNetwork.leaf1.eth[2].mac.queue queueLength:vector ETV
attr interpolationmode sample-hold
attr source "count(packetPushed) - count(packetPopped) - count(packetRemoved) - count(packetDropped)"
attr title "queue length, vector"
vector 237 spineLeafNetwork.leaf1.eth[2].mac.queue packetPopped:vector(packetBytes) ETV
attr interpolationmode none
attr title "packet popped, vector(packetBytes)"
vector 238 spineLeafNetwork.leaf1.eth[2].mac.queue queueingTime:vector ETV
attr interpolationmode none
attr source queueingTime(packetPopped)
attr title "queueing times, vector"
attr unit s
vector 239 spineLeafNetwork.leaf1.eth[2].mac txPk:vector(packetBytes) ETV
attr interpolationmode none
attr source packetSentToLower
attr title "packets transmitted, vector(packetBytes)"
vector 240 spineLeafNetwork.spine3.eth[0].mac rxPkOk:vector(packetBytes) ETV
attr interpolationmode none
attr source rxPkOk
attr title "packets received OK, vector(packetBytes)"
vector 241 spineLeafNetwork.spine3.eth[0].mac passedUpPk:vector(packetBytes) ETV
attr interpolationmode none
attr source packetSentToUpper
attr title "packets passed to higher layer, vector(packetBytes)"
vector 242 spineLeafNetwork.spine3.eth[0].encap decapPk:vector(packetBytes) ETV
attr interpolationmode none
attr source decapPk
attr title "packets decapsulated, vector(packetBytes)"
vector 243 spineLeafNetwork.H2.app[0] pingRxSeq:vector ETV
attr interpolationmode none
attr title "ping rx seq, vector"
vector 244 spineLeafNetwork.H2.app[0] rtt:vector ETV
attr interpolationmode none
attr title "ping round-trip time, vector"
attr unit s
vector 245 spineLeafNetwork.H9.app[0] pingTxSeq:vector ETV
attr interpolationmode none
attr title "ping tx seq, vector"
vector 246 spineLeafNetwork.H9.ipv4.arp arpRequestSent:vector(packetBytes) ETV
attr source arpRequestSent
attr title "ARP request sent, vector(packetBytes)"
vector 247 spineLeafNetwork.H9.eth[0].encap encapPk:vector(packetBytes) ETV
attr interpolationmode none
attr source encapPk
attr title "packets encapsulated, vector(packetBytes)"
vector 248 spineLeafNetwork.H9.eth[0].mac packetReceivedFromUpper:vector(packetBytes) ETV
attr interpolationmode none
attr source packetReceivedFromUpper
attr title "packet bytes from higher layer, vector(packetBytes)"
vector 249 spineLeafNetwork.H9.eth[0].mac.queue packetPushed:vector(packetBytes) ETV
attr interpolationmode none
attr title "packet pushed, vector(packetBytes)"
vector 250 spineLeafNetwork.H9.eth[0].mac.queue queueLength:vector ETV
attr interpolationmode sample-hold
attr source "count(packetPushed) - count(packetPopped) - count(packetRemoved) - count(packetDropped)"
attr title "queue length, vector"
vector 251 spineLeafNetwork.H9.eth[0].mac.queue packetPopped:vector(packetBytes) ETV
attr interpolationmode none
attr title "packet popped, vector(packetBytes)"
vector 252 spineLeafNetwork.H9.eth[0].mac.queue queueingTime:vector ETV
attr interpolationmode none
attr source queueingTime(packetPopped)
attr title "queueing times, vector"
attr unit s
vector 253 spineLeafNetwork.H9.eth[0].mac txPk:vector(packetBytes) ETV
attr interpolationmode none
attr source packetSentToLower
attr title "packets transmitted, vector(packetBytes)"
vector 254 spineLeafNetwork.leaf3.eth[5].mac rxPkOk:vector(packetBytes) ETV
attr interpolationmode none
attr source rxPkOk
attr title "packets received OK, vector(packetBytes)"
vector 255 spineLeafNetwork.leaf3.eth[5].mac passedUpPk:vector(packetBytes) ETV
attr interpolationmode none
attr source packetSentToUpper
attr title "packets passed to higher layer, vector(packetBytes)"
vector 256 spineLeafNetwork.leaf3.eth[5].encap decapPk:vector(packetBytes) ETV
attr interpolationmode none
attr source decapPk
attr title "packets decapsulated, vector(packetBytes)"
vector 257 spineLeafNetwork.leaf3.ipv4.arp arpReplySent:vector(packetBytes) ETV
attr source arpReplySent
attr title "ARP replies sent, vector(packetBytes)"
vector 258 spineLeafNetwork.leaf3.eth[5].encap encapPk:vector(packetBytes) ETV
attr interpolationmode none
attr source encapPk
attr title "packets encapsulated, vector(packetBytes)"
vector 259 spineLeafNetwork.leaf3.eth[5].mac packetReceivedFromUpper:vector(packetBytes) ETV
attr interpolationmode none
attr source packetReceivedFromUpper
attr title "packet bytes from higher layer, vector(packetBytes)"
vector 260 spineLeafNetwork.leaf3.eth[5].mac.queue packetPushed:vector(packetBytes) ETV
attr interpolationmode none
attr title "packet pushed, vector(packetBytes)"
vector 261 spineLeafNetwork.leaf3.eth[5].mac.queue queueLength:vector ETV
attr interpolationmode sample-hold
attr source "count(packetPushed) - count(packetPopped) - count(packetRemoved) - count(packetDropped)"
attr title "queue length, vector"
vector 262 spineLeafNetwork.leaf3.eth[5].mac.queue packetPopped:vector(packetBytes) ETV
attr interpolationmode none
attr title "packet popped, vector(packetBytes)"
vector 263 spineLeafNetwork.leaf3.eth[5].mac.queue queueingTime:vector ETV
attr interpolationmode none
attr source queueingTime(packetPopped)
attr title "queueing times, vector"
attr unit s
vector 264 spineLeafNetwork.leaf3.eth[5].mac txPk:vector(packetBytes) ETV
attr interpolationmode none
attr source packetSentToLower
attr title "packets transmitted, vector(packetBytes)"
vector 265 spineLeafNetwork.H9.eth[0].mac rxPkOk:vector(packetBytes) ETV
attr interpolationmode none
attr source rxPkOk
attr title "packets received OK, vector(packetBytes)"
vector 266 spineLeafNetwork.H9.eth[0].mac passedUpPk:vector(packetBytes) ETV
attr interpolationmode none
attr source packetSentToUpper
attr title "packets passed to higher layer, vector(packetBytes)"
vector 267 spineLeafNetwork.H9.eth[0].encap decapPk:vector(packetBytes) ETV
attr interpolationmode none
attr source decapPk
attr title "packets decapsulated, vector(packetBytes)"
vector 268 spineLeafNetwork.leaf3.ipv4.arp arpRequestSent:vector(packetBytes) ETV
attr source arpRequestSent
attr title "ARP request sent, vector(packetBytes)"
vector 269 spineLeafNetwork.leaf3.eth[2].encap encapPk:vector(packetBytes) ETV
attr interpolationmode none
attr source encapPk
attr title "packets encapsulated, vector(packetBytes)"
vector 270 spineLeafNetwork.leaf3.eth[2].mac packetReceivedFromUpper:vector(packetBytes) ETV
attr interpolationmode none
attr source packetReceivedFromUpper
attr title "packet bytes from higher layer, vector(packetBytes)"
vector 271 spineLeafNetwork.leaf3.eth[2].mac.queue packetPushed:vector(packetBytes) ETV
attr interpolationmode none
attr title "packet pushed, vector(packetBytes)"
vector 272 spineLeafNetwork.leaf3.eth[2].mac.queue queueLength:vector ETV
attr interpolationmode sample-hold
attr source "count(packetPushed) - count(packetPopped) - count(packetRemoved) - count(packetDropped)"
attr title "queue length, vector"
vector 273 spineLeafNetwork.leaf3.eth[2].mac.queue packetPopped:vector(packetBytes) ETV
attr interpolationmode none
attr title "packet popped, vector(packetBytes)"
vector 274 spineLeafNetwork.leaf3.eth[2].mac.queue queueingTime:vector ETV
attr interpolationmode none
attr source queueingTime(packetPopped)
attr title "queueing times, vector"
attr unit s
vector 275 spineLeafNetwork.leaf3.eth[2].mac txPk:vector(packetBytes) ETV
attr interpolationmode none
attr source packetSentToLower
attr title "packets transmitted, vector(packetBytes)"
vector 276 spineLeafNetwork.spine3.eth[2].mac rxPkOk:vector(packetBytes) ETV
attr interpolationmode none
attr source rxPkOk
attr title "packets received OK, vector(packetBytes)"
vector 277 spineLeafNetwork.spine3.eth[2].mac passedUpPk:vector(packetBytes) ETV
attr interpolationmode none
attr source packetSentToUpper
attr title "packets passed to higher layer, vector(packetBytes)"
vector 278 spineLeafNetwork.spine3.eth[2].encap decapPk:vector(packetBytes) ETV
attr interpolationmode none
attr source decapPk
attr title "packets decapsulated, vector(packetBytes)"
vector 279 spineLeafNetwork.spine3.eth[2].encap encapPk:vector(packetBytes) ETV
attr interpolationmode none
attr source encapPk
attr title "packets encapsulated, vector(packetBytes)"
vector 280 spineLeafNetwork.spine3.eth[2].mac packetReceivedFromUpper:vector(packetBytes) ETV
attr interpolationmode none
attr source packetReceivedFromUpper
attr title "packet bytes from higher layer, vector(packetBytes)"
vector 281 spineLeafNetwork.spine3.eth[2].mac.queue packetPushed:vector(packetBytes) ETV
attr interpolationmode none
attr title "packet pushed, vector(packetBytes)"
vector 282 spineLeafNetwork.spine3.eth[2].mac.queue queueLength:vector ETV
attr interpolationmode sample-hold
attr source "count(packetPushed) - count(packetPopped) - count(packetRemoved) - count(packetDropped)"
attr title "queue length, vector"
vector 283 spineLeafNetwork.spine3.eth[2].mac.queue packetPopped:vector(packetBytes) ETV
attr interpolationmode none
attr title "packet popped, vector(packetBytes)"
vector 284 spineLeafNetwork.spine3.eth[2].mac.queue queueingTime:vector ETV
attr interpolationmode none
attr source queueingTime(packetPopped)
attr title "queueing times, vector"
attr unit s
vector 285 spineLeafNetwork.spine3.eth[2].mac txPk:vector(packetBytes) ETV
attr interpolationmode none
attr source packetSentToLower
attr title "packets transmitted, vector(packetBytes)"
vector 286 spineLeafNetwork.leaf3.eth[2].mac rxPkOk:vector(packetBytes) ETV
attr interpolationmode none
attr source rxPkOk
attr title "packets received OK, vector(packetBytes)"
vector 287 spineLeafNetwork.leaf3.eth[2].mac passedUpPk:vector(packetBytes) ETV
attr interpolationmode none
attr source packetSentToUpper
attr title "packets passed to higher layer, vector(packetBytes)"
vector 288 spineLeafNetwork.leaf3.eth[2].encap decapPk:vector(packetBytes) ETV
attr interpolationmode none
attr source decapPk
attr title "packets decapsulated, vector(packetBytes)"
vector 289 spineLeafNetwork.H9.app[0] pingRxSeq:vector ETV
attr interpolationmode none
attr title "ping rx seq, vector"
vector 290 spineLeafNetwork.H9.app[0] rtt:vector ETV
attr interpolationmode none
attr title "ping round-trip time, vector"
attr unit s
vector 291 spineLeafNetwork.H10.app[0] pingTxSeq:vector ETV
attr interpolationmode none
attr title "ping tx seq, vector"
vector 292 spineLeafNetwork.H10.lo[0].lo rcvdPkFromHl:vector(packetBytes) ETV
attr interpolationmode none
attr source packetReceivedFromUpper
attr title "packets received from higher layer, vector(packetBytes)"
vector 293 spineLeafNetwork.H10.lo[0].lo passedUpPk:vector(packetBytes) ETV
attr interpolationmode none
attr source packetSentToUpper
attr title "packets passed to higher layer, vector(packetBytes)"
vector 294 spineLeafNetwork.H10.app[0] pingRxSeq:vector ETV
attr interpolationmode none
attr title "ping rx seq, vector"
vector 295 spineLeafNetwork.H1.app[0] pingTxSeq:vector ETV
attr interpolationmode none
attr title "ping tx seq, vector"
vector 296 spineLeafNetwork.H1.ipv4.arp arpRequestSent:vector(packetBytes) ETV
attr source arpRequestSent
attr title "ARP request sent, vector(packetBytes)"
vector 297 spineLeafNetwork.H1.eth[0].encap encapPk:vector(packetBytes) ETV
attr interpolationmode none
attr source encapPk
attr title "packets encapsulated, vector(packetBytes)"
vector 298 spineLeafNetwork.H1.eth[0].mac packetReceivedFromUpper:vector(packetBytes) ETV
attr interpolationmode none
attr source packetReceivedFromUpper
attr title "packet bytes from higher layer, vector(packetBytes)"
vector 299 spineLeafNetwork.H1.eth[0].mac.queue packetPushed:vector(packetBytes) ETV
attr interpolationmode none
attr title "packet pushed, vector(packetBytes)"
vector 300 spineLeafNetwork.H1.eth[0].mac.queue queueLength:vector ETV
attr interpolationmode sample-hold
attr source "count(packetPushed) - count(packetPopped) - count(packetRemoved) - count(packetDropped)"
attr title "queue length, vector"
vector 301 spineLeafNetwork.H1.eth[0].mac.queue packetPopped:vector(packetBytes) ETV
attr interpolationmode none
attr title "packet popped, vector(packetBytes)"
vector 302 spineLeafNetwork.H1.eth[0].mac.queue queueingTime:vector ETV
attr interpolationmode none
attr source queueingTime(packetPopped)
attr title "queueing times, vector"
attr unit s
vector 303 spineLeafNetwork.H1.eth[0].mac txPk:vector(packetBytes) ETV
attr interpolationmode none
attr source packetSentToLower
attr title "packets transmitted, vector(packetBytes)"
vector 304 spineLeafNetwork.leaf1.eth[3].mac rxPkOk:vector(packetBytes) ETV
attr interpolationmode none
attr source rxPkOk
attr title "packets received OK, vector(packetBytes)"
vector 305 spineLeafNetwork.leaf1.eth[3].mac passedUpPk:vector(packetBytes) ETV
attr interpolationmode none
attr source packetSentToUpper
attr title "packets passed to higher layer, vector(packetBytes)"
vector 306 spineLeafNetwork.leaf1.eth[3].encap decapPk:vector(packetBytes) ETV
attr interpolationmode none
attr source decapPk
attr title "packets decapsulated, vector(packetBytes)"
vector 307 spineLeafNetwork.leaf1.eth[3].encap encapPk:vector(packetBytes) ETV
attr interpolationmode none
attr source encapPk
attr title "packets encapsulated, vector(packetBytes)"
vector 308 spineLeafNetwork.leaf1.eth[3].mac packetReceivedFromUpper:vector(packetBytes) ETV
attr interpolationmode none
attr source packetReceivedFromUpper
attr title "packet bytes from higher layer, vector(packetBytes)"
vector 309 spineLeafNetwork.leaf1.eth[3].mac.queue packetPushed:vector(packetBytes) ETV
attr interpolationmode none
attr title "packet pushed, vector(packetBytes)"
vector 310 spineLeafNetwork.leaf1.eth[3].mac.queue queueLength:vector ETV
attr interpolationmode sample-hold
attr source "count(packetPushed) - count(packetPopped) - count(packetRemoved) - count(packetDropped)"
attr title "queue length, vector"
vector 311 spineLeafNetwork.leaf1.eth[3].mac.queue packetPopped:vector(packetBytes) ETV
attr interpolationmode none
attr title "packet popped, vector(packetBytes)"
vector 312 spineLeafNetwork.leaf1.eth[3].mac.queue queueingTime:vector ETV
attr interpolationmode none
attr source queueingTime(packetPopped)
attr title "queueing times, vector"
attr unit s
vector 313 spineLeafNetwork.leaf1.eth[3].mac txPk:vector(packetBytes) ETV
attr interpolationmode none
attr source packetSentToLower
attr title "packets transmitted, vector(packetBytes)"
vector 314 spineLeafNetwork.H1.eth[0].mac rxPkOk:vector(packetBytes) ETV
attr interpolationmode none
attr source rxPkOk
attr title "packets received OK, vector(packetBytes)"
vector 315 spineLeafNetwork.H1.eth[0].mac passedUpPk:vector(packetBytes) ETV
attr interpolationmode none
attr source packetSentToUpper
attr title "packets passed to higher layer, vector(packetBytes)"
vector 316 spineLeafNetwork.H1.eth[0].encap decapPk:vector(packetBytes) ETV
attr interpolationmode none
attr source decapPk
attr title "packets decapsulated, vector(packetBytes)"
vector 317 spineLeafNetwork.leaf1.eth[1].encap encapPk:vector(packetBytes) ETV
attr interpolationmode none
attr source encapPk
attr title "packets encapsulated, vector(packetBytes)"
vector 318 spineLeafNetwork.leaf1.eth[1].mac packetReceivedFromUpper:vector(packetBytes) ETV
attr interpolationmode none
attr source packetReceivedFromUpper
attr title "packet bytes from higher layer, vector(packetBytes)"
vector 319 spineLeafNetwork.leaf1.eth[1].mac.queue packetPushed:vector(packetBytes) ETV
attr interpolationmode none
attr title "packet pushed, vector(packetBytes)"
vector 320 spineLeafNetwork.leaf1.eth[1].mac.queue queueLength:vector ETV
attr interpolationmode sample-hold
attr source "count(packetPushed) - count(packetPopped) - count(packetRemoved) - count(packetDropped)"
attr title "queue length, vector"
vector 321 spineLeafNetwork.leaf1.eth[1].mac.queue packetPopped:vector(packetBytes) ETV
attr interpolationmode none
attr title "packet popped, vector(packetBytes)"
vector 322 spineLeafNetwork.leaf1.eth[1].mac.queue queueingTime:vector ETV
attr interpolationmode none
attr source queueingTime(packetPopped)
attr title "queueing times, vector"
attr unit s
vector 323 spineLeafNetwork.leaf1.eth[1].mac txPk:vector(packetBytes) ETV
attr interpolationmode none
attr source packetSentToLower
attr title "packets transmitted, vector(packetBytes)"
vector 324 spineLeafNetwork.spine2.eth[0].mac rxPkOk:vector(packetBytes) ETV
attr interpolationmode none
attr source rxPkOk
attr title "packets received OK, vector(packetBytes)"
vector 325 spineLeafNetwork.spine2.eth[0].mac passedUpPk:vector(packetBytes) ETV
attr interpolationmode none
attr source packetSentToUpper
attr title "packets passed to higher layer, vector(packetBytes)"
vector 326 spineLeafNetwork.spine2.eth[0].encap decapPk:vector(packetBytes) ETV
attr interpolationmode none
attr source decapPk
attr title "packets decapsulated, vector(packetBytes)"
vector 327 spineLeafNetwork.spine2.eth[0].encap encapPk:vector(packetBytes) ETV
attr interpolationmode none
attr source encapPk
attr title "packets encapsulated, vector(packetBytes)"
vector 328 spineLeafNetwork.spine2.eth[0].mac packetReceivedFromUpper:vector(packetBytes) ETV
attr interpolationmode none
attr source packetReceivedFromUpper
attr title "packet bytes from higher layer, vector(packetBytes)"
vector 329 spineLeafNetwork.spine2.eth[0].mac.queue packetPushed:vector(packetBytes) ETV
attr interpolationmode none
attr title "packet pushed, vector(packetBytes)"
vector 330 spineLeafNetwork.spine2.eth[0].mac.queue queueLength:vector ETV
attr interpolationmode sample-hold
attr source "count(packetPushed) - count(packetPopped) - count(packetRemoved) - count(packetDropped)"
attr title "queue length, vector"
vector 331 spineLeafNetwork.spine2.eth[0].mac.queue packetPopped:vector(packetBytes) ETV
attr interpolationmode none
attr title "packet popped, vector(packetBytes)"
vector 332 spineLeafNetwork.spine2.eth[0].mac.queue queueingTime:vector ETV
attr interpolationmode none
attr source queueingTime(packetPopped)
attr title "queueing times, vector"
attr unit s
vector 333 spineLeafNetwork.spine2.eth[0].mac txPk:vector(packetBytes) ETV
attr interpolationmode none
attr source packetSentToLower
attr title "packets transmitted, vector(packetBytes)"
vector 334 spineLeafNetwork.leaf1.eth[1].mac rxPkOk:vector(packetBytes) ETV
attr interpolationmode none
attr source rxPkOk
attr title "packets received OK, vector(packetBytes)"
vector 335 spineLeafNetwork.leaf1.eth[1].mac passedUpPk:vector(packetBytes) ETV
attr interpolationmode none
attr source packetSentToUpper
attr title "packets passed to higher layer, vector(packetBytes)"
vector 336 spineLeafNetwork.leaf1.eth[1].encap decapPk:vector(packetBytes) ETV
attr interpolationmode none
attr source decapPk
attr title "packets decapsulated, vector(packetBytes)"
vector 337 spineLeafNetwork.H1.app[0] pingRxSeq:vector ETV
attr interpolationmode none
attr title "ping rx seq, vector"
vector 338 spineLeafNetwork.H1.app[0] rtt:vector ETV
attr interpolationmode none
attr title "ping round-trip time, vector"
attr unit s
vector 339 spineLeafNetwork.H3.app[0] pingTxSeq:vector ETV
attr interpolationmode none
attr title "ping tx seq, vector"
vector 340 spineLeafNetwork.H3.ipv4.arp arpRequestSent:vector(packetBytes) ETV
attr source arpRequestSent
attr title "ARP request sent, vector(packetBytes)"
vector 341 spineLeafNetwork.H3.eth[0].encap encapPk:vector(packetBytes) ETV
attr interpolationmode none
attr source encapPk
attr title "packets encapsulated, vector(packetBytes)"
vector 342 spineLeafNetwork.H3.eth[0].mac packetReceivedFromUpper:vector(packetBytes) ETV
attr interpolationmode none
attr source packetReceivedFromUpper
attr title "packet bytes from higher layer, vector(packetBytes)"
vector 343 spineLeafNetwork.H3.eth[0].mac.queue packetPushed:vector(packetBytes) ETV
attr interpolationmode none
attr title "packet pushed, vector(packetBytes)"
vector 344 spineLeafNetwork.H3.eth[0].mac.queue queueLength:vector ETV
attr interpolationmode sample-hold
attr source "count(packetPushed) - count(packetPopped) - count(packetRemoved) - count(packetDropped)"
attr title "queue length, vector"
vector 345 spineLeafNetwork.H3.eth[0].mac.queue packetPopped:vector(packetBytes) ETV
attr interpolationmode none
attr title "packet popped, vector(packetBytes)"
vector 346 spineLeafNetwork.H3.eth[0].mac.queue queueingTime:vector ETV
attr interpolationmode none
attr source queueingTime(packetPopped)
attr title "queueing times, vector"
attr unit s
vector 347 spineLeafNetwork.H3.eth[0].mac txPk:vector(packetBytes) ETV
attr interpolationmode none
attr source packetSentToLower
attr title "packets transmitted, vector(packetBytes)"
vector 348 spineLeafNetwork.leaf1.eth[5].mac rxPkOk:vector(packetBytes) ETV
attr interpolationmode none
attr source rxPkOk
attr title "packets received OK, vector(packetBytes)"
vector 349 spineLeafNetwork.leaf1.eth[5].mac passedUpPk:vector(packetBytes) ETV
attr interpolationmode none
attr source packetSentToUpper
attr title "packets passed to higher layer, vector(packetBytes)"
vector 350 spineLeafNetwork.leaf1.eth[5].encap decapPk:vector(packetBytes) ETV
attr interpolationmode none
attr source decapPk
attr title "packets decapsulated, vector(packetBytes)"
vector 351 spineLeafNetwork.leaf1.eth[5].encap encapPk:vector(packetBytes) ETV
attr interpolationmode none
attr source encapPk
attr title "packets encapsulated, vector(packetBytes)"
vector 352 spineLeafNetwork.leaf1.eth[5].mac packetReceivedFromUpper:vector(packetBytes) ETV
attr interpolationmode none
attr source packetReceivedFromUpper
attr title "packet bytes from higher layer, vector(packetBytes)"
vector 353 spineLeafNetwork.leaf1.eth[5].mac.queue packetPushed:vector(packetBytes) ETV
attr interpolationmode none
attr title "packet pushed, vector(packetBytes)"
vector 354 spineLeafNetwork.leaf1.eth[5].mac.queue queueLength:vector ETV
attr interpolationmode sample-hold
attr source "count(packetPushed) - count(packetPopped) - count(packetRemoved) - count(packetDropped)"
attr title "queue length, vector"
vector 355 spineLeafNetwork.leaf1.eth[5].mac.queue packetPopped:vector(packetBytes) ETV
attr interpolationmode none
attr title "packet popped, vector(packetBytes)"
vector 356 spineLeafNetwork.leaf1.eth[5].mac.queue queueingTime:vector ETV
attr interpolationmode none
attr source queueingTime(packetPopped)
attr title "queueing times, vector"
attr unit s
vector 357 spineLeafNetwork.leaf1.eth[5].mac txPk:vector(packetBytes) ETV
attr interpolationmode none
attr source packetSentToLower
attr title "packets transmitted, vector(packetBytes)"
vector 358 spineLeafNetwork.H3.eth[0].mac rxPkOk:vector(packetBytes) ETV
attr interpolationmode none
attr source rxPkOk
attr title "packets received OK, vector(packetBytes)"
vector 359 spineLeafNetwork.H3.eth[0].mac passedUpPk:vector(packetBytes) ETV
attr interpolationmode none
attr source packetSentToUpper
attr title "packets passed to higher layer, vector(packetBytes)"
vector 360 spineLeafNetwork.H3.eth[0].encap decapPk:vector(packetBytes) ETV
attr interpolationmode none
attr source decapPk
attr title "packets decapsulated, vector(packetBytes)"
vector 361 spineLeafNetwork.H3.app[0] pingRxSeq:vector ETV
attr interpolationmode none
attr title "ping rx seq, vector"
vector 362 spineLeafNetwork.H3.app[0] rtt:vector ETV
attr interpolationmode none
attr title "ping round-trip time, vector"
attr unit s
vector 363 spineLeafNetwork.H7.app[0] pingTxSeq:vector ETV
attr interpolationmode none
attr title "ping tx seq, vector"
vector 364 spineLeafNetwork.H7.ipv4.arp arpRequestSent:vector(packetBytes) ETV
attr source arpRequestSent
attr title "ARP request sent, vector(packetBytes)"
vector 365 spineLeafNetwork.H7.eth[0].encap encapPk:vector(packetBytes) ETV
attr interpolationmode none
attr source encapPk
attr title "packets encapsulated, vector(packetBytes)"
vector 366 spineLeafNetwork.H7.eth[0].mac packetReceivedFromUpper:vector(packetBytes) ETV
attr interpolationmode none
attr source packetReceivedFromUpper
attr title "packet bytes from higher layer, vector(packetBytes)"
vector 367 spineLeafNetwork.H7.eth[0].mac.queue packetPushed:vector(packetBytes) ETV
attr interpolationmode none
attr title "packet pushed, vector(packetBytes)"
vector 368 spineLeafNetwork.H7.eth[0].mac.queue queueLength:vector ETV
attr interpolationmode sample-hold
attr source "count(packetPushed) - count(packetPopped) - count(packetRemoved) - count(packetDropped)"
attr title "queue length, vector"
vector 369 spineLeafNetwork.H7.eth[0].mac.queue packetPopped:vector(packetBytes) ETV
attr interpolationmode none
attr title "packet popped, vector(packetBytes)"
vector 370 spineLeafNetwork.H7.eth[0].mac.queue queueingTime:vector ETV
attr interpolationmode none
attr source queueingTime(packetPopped)
attr title "queueing times, vector"
attr unit s
vector 371 spineLeafNetwork.H7.eth[0].mac txPk:vector(packetBytes) ETV
attr interpolationmode none
attr source packetSentToLower
attr title "packets transmitted, vector(packetBytes)"
vector 372 spineLeafNetwork.leaf3.eth[3].mac rxPkOk:vector(packetBytes) ETV
attr interpolationmode none
attr source rxPkOk
attr title "packets received OK, vector(packetBytes)"
vector 373 spineLeafNetwork.leaf3.eth[3].mac passedUpPk:vector(packetBytes) ETV
attr interpolationmode none
attr source packetSentToUpper
attr title "packets passed to higher layer, vector(packetBytes)"
vector 374 spineLeafNetwork.leaf3.eth[3].encap decapPk:vector(packetBytes) ETV
attr interpolationmode none
attr source decapPk
attr title "packets decapsulated, vector(packetBytes)"
vector 375 spineLeafNetwork.leaf3.eth[3].encap encapPk:vector(packetBytes) ETV
attr interpolationmode none
attr source encapPk
attr title "packets encapsulated, vector(packetBytes)"
vector 376 spineLeafNetwork.leaf3.eth[3].mac packetReceivedFromUpper:vector(packetBytes) ETV
attr interpolationmode none
attr source packetReceivedFromUpper
attr title "packet bytes from higher layer, vector(packetBytes)"
vector 377 spineLeafNetwork.leaf3.eth[3].mac.queue packetPushed:vector(packetBytes) ETV
attr interpolationmode none
attr title "packet pushed, vector(packetBytes)"
vector 378 spineLeafNetwork.leaf3.eth[3].mac.queue queueLength:vector ETV
attr interpolationmode sample-hold
attr source "count(packetPushed) - count(packetPopped) - count(packetRemoved) - count(packetDropped)"
attr title "queue length, vector"
vector 379 spineLeafNetwork.leaf3.eth[3].mac.queue packetPopped:vector(packetBytes) ETV
attr interpolationmode none
attr title "packet popped, vector(packetBytes)"
vector 380 spineLeafNetwork.leaf3.eth[3].mac.queue queueingTime:vector ETV
attr interpolationmode none
attr source queueingTime(packetPopped)
attr title "queueing times, vector"
attr unit s
vector 381 spineLeafNetwork.leaf3.eth[3].mac txPk:vector(packetBytes) ETV
attr interpolationmode none
attr source packetSentToLower
attr title "packets transmitted, vector(packetBytes)"
vector 382 spineLeafNetwork.H7.eth[0].mac rxPkOk:vector(packetBytes) ETV
attr interpolationmode none
attr source rxPkOk
attr title "packets received OK, vector(packetBytes)"
vector 383 spineLeafNetwork.H7.eth[0].mac passedUpPk:vector(packetBytes) ETV
attr interpolationmode none
attr source packetSentToUpper
attr title "packets passed to higher layer, vector(packetBytes)"
vector 384 spineLeafNetwork.H7.eth[0].encap decapPk:vector(packetBytes) ETV
attr interpolationmode none
attr source decapPk
attr title "packets decapsulated, vector(packetBytes)"
vector 385 spineLeafNetwork.leaf3.eth[1].encap encapPk:vector(packetBytes) ETV
attr interpolationmode none
attr source encapPk
attr title "packets encapsulated, vector(packetBytes)"
vector 386 spineLeafNetwork.leaf3.eth[1].mac packetReceivedFromUpper:vector(packetBytes) ETV
attr interpolationmode none
attr source packetReceivedFromUpper
attr title "packet bytes from higher layer, vector(packetBytes)"
vector 387 spineLeafNetwork.leaf3.eth[1].mac.queue packetPushed:vector(packetBytes) ETV
attr interpolationmode none
attr title "packet pushed, vector(packetBytes)"
vector 388 spineLeafNetwork.leaf3.eth[1].mac.queue queueLength:vector ETV
attr interpolationmode sample-hold
attr source "count(packetPushed) - count(packetPopped) - count(packetRemoved) - count(packetDropped)"
attr title "queue length, vector"
vector 389 spineLeafNetwork.leaf3.eth[1].mac.queue packetPopped:vector(packetBytes) ETV
attr interpolationmode none
attr title "packet popped, vector(packetBytes)"
vector 390 spineLeafNetwork.leaf3.eth[1].mac.queue queueingTime:vector ETV
attr interpolationmode none
attr source queueingTime(packetPopped)
attr title "queueing times, vector"
attr unit s
vector 391 spineLeafNetwork.leaf3.eth[1].mac txPk:vector(packetBytes) ETV
attr interpolationmode none
attr source packetSentToLower
attr title "packets transmitted, vector(packetBytes)"
vector 392 spineLeafNetwork.spine2.eth[2].mac rxPkOk:vector(packetBytes) ETV
attr interpolationmode none
attr source rxPkOk
attr title "packets received OK, vector(packetBytes)"
vector 393 spineLeafNetwork.spine2.eth[2].mac passedUpPk:vector(packetBytes) ETV
attr interpolationmode none
attr source packetSentToUpper
attr title "packets passed to higher layer, vector(packetBytes)"
vector 394 spineLeafNetwork.spine2.eth[2].encap decapPk:vector(packetBytes) ETV
attr interpolationmode none
attr source decapPk
attr title "packets decapsulated, vector(packetBytes)"
vector 395 spineLeafNetwork.spine2.eth[2].encap encapPk:vector(packetBytes) ETV
attr interpolationmode none
attr source encapPk
attr title "packets encapsulated, vector(packetBytes)"
vector 396 spineLeafNetwork.spine2.eth[2].mac packetReceivedFromUpper:vector(packetBytes) ETV
attr interpolationmode none
attr source packetReceivedFromUpper
attr title "packet bytes from higher layer, vector(packetBytes)"
vector 397 spineLeafNetwork.spine2.eth[2].mac.queue packetPushed:vector(packetBytes) ETV
attr interpolationmode none
attr title "packet pushed, vector(packetBytes)"
vector 398 spineLeafNetwork.spine2.eth[2].mac.queue queueLength:vector ETV
attr interpolationmode sample-hold
attr source "count(packetPushed) - count(packetPopped) - count(packetRemoved) - count(packetDropped)"
attr title "queue length, vector"
vector 399 spineLeafNetwork.spine2.eth[2].mac.queue packetPopped:vector(packetBytes) ETV
attr interpolationmode none
attr title "packet popped, vector(packetBytes)"
vector 400 spineLeafNetwork.spine2.eth[2].mac.queue queueingTime:vector ETV
attr interpolationmode none
attr source queueingTime(packetPopped)
attr title "queueing times, vector"
attr unit s
vector 401 spineLeafNetwork.spine2.eth[2].mac txPk:vector(packetBytes) ETV
attr interpolationmode none
attr source packetSentToLower
attr title "packets transmitted, vector(packetBytes)"
vector 402 spineLeafNetwork.leaf3.eth[1].mac rxPkOk:vector(packetBytes) ETV
attr interpolationmode none
attr source rxPkOk
attr title "packets received OK, vector(packetBytes)"
vector 403 spineLeafNetwork.leaf3.eth[1].mac passedUpPk:vector(packetBytes) ETV
attr interpolationmode none
attr source packetSentToUpper
attr title "packets passed to higher layer, vector(packetBytes)"
vector 404 spineLeafNetwork.leaf3.eth[1].encap decapPk:vector(packetBytes) ETV
attr interpolationmode none
attr source decapPk
attr title "packets decapsulated, vector(packetBytes)"
vector 405 spineLeafNetwork.H7.app[0] pingRxSeq:vector ETV
attr interpolationmode none
attr title "ping rx seq, vector"
vector 406 spineLeafNetwork.H7.app[0] rtt:vector ETV
attr interpolationmode none
attr title "ping round-trip time, vector"
attr unit s
vector 407 spineLeafNetwork.H5.app[0] pingTxSeq:vector ETV
attr interpolationmode none
attr title "ping tx seq, vector"
vector 408 spineLeafNetwork.H5.ipv4.arp arpRequestSent:vector(packetBytes) ETV
attr source arpRequestSent
attr title "ARP request sent, vector(packetBytes)"
vector 409 spineLeafNetwork.H5.eth[0].encap encapPk:vector(packetBytes) ETV
attr interpolationmode none
attr source encapPk
attr title "packets encapsulated, vector(packetBytes)"
vector 410 spineLeafNetwork.H5.eth[0].mac packetReceivedFromUpper:vector(packetBytes) ETV
attr interpolationmode none
attr source packetReceivedFromUpper
attr title "packet bytes from higher layer, vector(packetBytes)"
vector 411 spineLeafNetwork.H5.eth[0].mac.queue packetPushed:vector(packetBytes) ETV
attr interpolationmode none
attr title "packet pushed, vector(packetBytes)"
vector 412 spineLeafNetwork.H5.eth[0].mac.queue queueLength:vector ETV
attr interpolationmode sample-hold
attr source "count(packetPushed) - count(packetPopped) - count(packetRemoved) - count(packetDropped)"
attr title "queue length, vector"
vector 413 spineLeafNetwork.H5.eth[0].mac.queue packetPopped:vector(packetBytes) ETV
attr interpolationmode none
attr title "packet popped, vector(packetBytes)"
vector 414 spineLeafNetwork.H5.eth[0].mac.queue queueingTime:vector ETV
attr interpolationmode none
attr source queueingTime(packetPopped)
attr title "queueing times, vector"
attr unit s
vector 415 spineLeafNetwork.H5.eth[0].mac txPk:vector(packetBytes) ETV
attr interpolationmode none
attr source packetSentToLower
attr title "packets transmitted, vector(packetBytes)"
vector 416 spineLeafNetwork.leaf2.eth[4].mac rxPkOk:vector(packetBytes) ETV
attr interpolationmode none
attr source rxPkOk
attr title "packets received OK, vector(packetBytes)"
vector 417 spineLeafNetwork.leaf2.eth[4].mac passedUpPk:vector(packetBytes) ETV
attr interpolationmode none
attr source packetSentToUpper
attr title "packets passed to higher layer, vector(packetBytes)"
vector 418 spineLeafNetwork.leaf2.eth[4].encap decapPk:vector(packetBytes) ETV
attr interpolationmode none
attr source decapPk
attr title "packets decapsulated, vector(packetBytes)"
vector 419 spineLeafNetwork.leaf2.eth[4].encap encapPk:vector(packetBytes) ETV
attr interpolationmode none
attr source encapPk
attr title "packets encapsulated, vector(packetBytes)"
vector 420 spineLeafNetwork.leaf2.eth[4].mac packetReceivedFromUpper:vector(packetBytes) ETV
attr interpolationmode none
attr source packetReceivedFromUpper
attr title "packet bytes from higher layer, vector(packetBytes)"
vector 421 spineLeafNetwork.leaf2.eth[4].mac.queue packetPushed:vector(packetBytes) ETV
attr interpolationmode none
attr title "packet pushed, vector(packetBytes)"
vector 422 spineLeafNetwork.leaf2.eth[4].mac.queue queueLength:vector ETV
attr interpolationmode sample-hold
attr source "count(packetPushed) - count(packetPopped) - count(packetRemoved) - count(packetDropped)"
attr title "queue length, vector"
vector 423 spineLeafNetwork.leaf2.eth[4].mac.queue packetPopped:vector(packetBytes) ETV
attr interpolationmode none
attr title "packet popped, vector(packetBytes)"
vector 424 spineLeafNetwork.leaf2.eth[4].mac.queue queueingTime:vector ETV
attr interpolationmode none
attr source queueingTime(packetPopped)
attr title "queueing times, vector"
attr unit s
vector 425 spineLeafNetwork.leaf2.eth[4].mac txPk:vector(packetBytes) ETV
[...]
223	264291 415 355 6309 0.548913082304 9.715242464972 15 28 84 1148 93296
224	264706 428 356 6310 0.548913082304 9.715242464972 15 46 102 1418 139484
225	265134 428 356 6310 0.548913082304 9.715242464972 15 64 102 1454 143444
226	265562 800 356 6310 0.548913082304 9.715242464972 30 0 1 15 15
227	266362 428 356 6310 0.548913082304 9.715242464972 15 64 102 1454 143444
228	266790 400 356 6310 0.548913082304 9.715242464972 15 0 0 0 0
229	267190 428 358 6312 0.548918842304 9.715251264972 15 64 102 1454 143444
230	267618 428 359 6313 0.548918892304 9.715251314972 15 64 102 1454 143444
231	268046 428 359 6313 0.548918892304 9.715251314972 15 64 102 1454 143444
232	268474 415 360 6314 0.548918892304 9.715251314972 15 46 84 1184 95960
233	268889 389 362 6208 0.548918892304 9.623572546397 14 28 84 1064 86240
234	269278 401 363 6209 0.548918892304 9.623572546397 14 46 102 1316 129080
235	269679 401 363 6209 0.548918892304 9.623572546397 14 64 102 1352 133040
236	270080 750 363 6209 0.548918892304 9.623572546397 28 0 1 14 14
237	270830 401 363 6209 0.548918892304 9.623572546397 14 64 102 1352 133040
238	271231 375 363 6209 0.548918892304 9.623572546397 14 0 0 0 0
239	271606 401 365 6211 0.548924652304 9.623581346397 14 64 102 1352 133040
240	272007 401 366 6212 0.548924702304 9.623581396397 14 64 102 1352 133040
241	272408 401 366 6212 0.548924702304 9.623581396397 14 64 102 1352 133040
242	272809 389 367 6213 0.548924702304 9.623581396397 14 46 84 1100 88904
243	273198 269 383 6123 0.548942402304 9.548884302304 10 0 9 45 285
244	273467 351 383 6123 0.548942402304 9.548884302304 10 7.08e-005 0.0001289 0.00078934 6.52898028e-008
245	273818 269 386 6126 0.592844616389 9.592844616389 10 0 9 45 285
246	274087 27 388 388 0.592844616389 0.592844616389 1 28 28 28 784
247	274114 306 389 6128 0.592844616389 9.592844616389 11 28 84 868 71344
248	274420 316 390 6129 0.592844616389 9.592844616389 11 46 102 1066 106156
249	274736 316 390 6129 0.592844616389 9.592844616389 11 64 102 1084 108136
250	275052 590 390 6129 0.592844616389 9.592844616389 22 0 1 11 11
251	275642 316 390 6129 0.592844616389 9.592844616389 11 64 102 1084 108136
252	275958 295 390 6129 0.592844616389 9.592844616389 11 0 0 0 0
253	276253 316 391 6130 0.592850376389 9.592853416389 11 64 102 1084 108136
254	276569 316 392 6131 0.592850426389 9.592853466389 11 64 102 1084 108136
255	276885 316 392 6131 0.592850426389 9.592853466389 11 64 102 1084 108136
256	277201 306 393 6132 0.592850426389 9.592853466389 11 46 84 886 72676
257	277507 108 394 1008 0.592850426389 0.858027769849 4 28 28 112 3136
258	277615 306 395 6179 0.592850426389 9.592906566389 11 28 84 868 71344
259	277921 316 396 6180 0.592850426389 9.592906566389 11 46 102 1066 106156
260	278237 316 396 6180 0.592850426389 9.592906566389 11 64 102 1084 108136
261	278553 590 396 6180 0.592850426389 9.592906566389 22 0 1 11 11
262	279143 316 396 6180 0.592850426389 9.592906566389 11 64 102 1084 108136
263	279459 295 396 6180 0.592850426389 9.592906566389 11 0 0 0 0
264	279754 316 398 6182 0.592856186389 9.592915366389 11 64 102 1084 108136
265	280070 316 399 6183 0.592856236389 9.592915416389 11 64 102 1084 108136
266	280386 316 399 6183 0.592856236389 9.592915416389 11 64 102 1084 108136
267	280702 306 400 6184 0.592856236389 9.592915416389 11 46 84 886 72676
268	281008 81 408 1257 0.592865086389 1.592853466389 3 28 28 84 2352
269	281089 386 409 6134 0.592865086389 9.592853466389 14 28 84 1120 92512
270	281475 399 410 6135 0.592865086389 9.592853466389 14 46 102 1372 137368
271	281874 399 410 6135 0.592865086389 9.592853466389 14 64 102 1390 139348
272	282273 744 410 6135 0.592865086389 9.592853466389 28 0 1 14 14
273	283017 399 410 6135 0.592865086389 9.592853466389 14 64 102 1390 139348
274	283416 372 410 6135 0.592865086389 9.592853466389 14 0 0 0 0
275	283788 399 412 6137 0.592870846389 9.592862266389 14 64 102 1390 139348
276	284187 399 413 6138 0.592870896389 9.592862316389 14 64 102 1390 139348
277	284586 399 413 6138 0.592870896389 9.592862316389 14 64 102 1390 139348
278	284985 386 414 6139 0.592870896389 9.592862316389 14 46 84 1138 93844
279	285371 358 416 6372 0.592870896389 9.84431884409 13 28 84 1036 85456
280	285729 370 417 6373 0.592870896389 9.84431884409 13 46 102 1270 126964
281	286099 370 417 6373 0.592870896389 9.84431884409 13 64 102 1288 128944
282	286469 690 417 6373 0.592870896389 9.84431884409 26 0 1 13 13
283	287159 370 417 6373 0.592870896389 9.84431884409 13 64 102 1288 128944
284	287529 345 417 6373 0.592870896389 9.84431884409 13 0 0 0 0
285	287874 370 419 6375 0.592876656389 9.84432764409 13 64 102 1288 128944
286	288244 370 420 6376 0.592876706389 9.84432769409 13 64 102 1288 128944
287	288614 370 420 6376 0.592876706389 9.84432769409 13 64 102 1288 128944
288	288984 358 421 6377 0.592876706389 9.84432769409 13 46 84 1054 86788
289	289342 269 488 6186 0.592950276389 9.592915416389 10 0 9 45 285
290	289611 352 488 6186 0.592950276389 9.592915416389 10 7.08e-005 0.00010566 0.00077772 6.18890936e-008
291	289963 269 491 6189 0.602763370378 9.602763370378 10 0 9 45 285
292	290232 558 494 6196 0.602763370378 9.602763370378 20 84 84 1680 141120
293	290790 558 494 6196 0.602763370378 9.602763370378 20 84 84 1680 141120
294	291348 269 501 6198 0.602763370378 9.602763370378 10 0 9 45 285
295	291617 269 503 6200 0.623563696397 9.623563696397 10 0 9 45 285
296	291886 27 505 505 0.623563696397 0.623563696397 1 28 28 28 784
297	291913 306 506 6202 0.623563696397 9.623563696397 11 28 84 868 71344
298	292219 316 507 6203 0.623563696397 9.623563696397 11 46 102 1066 106156
299	292535 316 507 6203 0.623563696397 9.623563696397 11 64 102 1084 108136
300	292851 590 507 6203 0.623563696397 9.623563696397 22 0 1 11 11
301	293441 316 507 6203 0.623563696397 9.623563696397 11 64 102 1084 108136
302	293757 295 507 6203 0.623563696397 9.623563696397 11 0 0 0 0
303	294052 316 508 6204 0.623569456397 9.623572496397 11 64 102 1084 108136
304	294368 316 509 6205 0.623569506397 9.623572546397 11 64 102 1084 108136
305	294684 316 509 6205 0.623569506397 9.623572546397 11 64 102 1084 108136
306	295000 306 510 6206 0.623569506397 9.623572546397 11 46 84 886 72676
307	295306 306 512 6253 0.623569506397 9.623625646397 11 28 84 868 71344
308	295612 316 513 6254 0.623569506397 9.623625646397 11 46 102 1066 106156
309	295928 316 513 6254 0.623569506397 9.623625646397 11 64 102 1084 108136
310	296244 590 513 6254 0.623569506397 9.623625646397 22 0 1 11 11
311	296834 316 513 6254 0.623569506397 9.623625646397 11 64 102 1084 108136
312	297150 295 513 6254 0.623569506397 9.623625646397 11 0 0 0 0
313	297445 316 515 6256 0.623575266397 9.623634446397 11 64 102 1084 108136
314	297761 316 516 6257 0.623575316397 9.623634496397 11 64 102 1084 108136
315	298077 316 516 6257 0.623575316397 9.623634496397 11 64 102 1084 108136
316	298393 306 517 6258 0.623575316397 9.623634496397 11 46 84 886 72676
317	298699 306 526 6271 0.623584166397 9.715198214972 11 28 84 868 71344
318	299005 316 527 6272 0.623584166397 9.715198214972 11 46 102 1066 106156
319	299321 316 527 6272 0.623584166397 9.715198214972 11 64 102 1084 108136
320	299637 590 527 6272 0.623584166397 9.715198214972 22 0 1 11 11
321	300227 316 527 6272 0.623584166397 9.715198214972 11 64 102 1084 108136
322	300543 295 527 6272 0.623584166397 9.715198214972 11 0 0 0 0
323	300838 316 529 6274 0.623589926397 9.715207014972 11 64 102 1084 108136
324	301154 316 530 6275 0.623589976397 9.715207064972 11 64 102 1084 108136
325	301470 316 530 6275 0.623589976397 9.715207064972 11 64 102 1084 108136
326	301786 306 531 6276 0.623589976397 9.715207064972 11 46 84 886 72676
327	302092 279 533 5731 0.623589976397 8.715242464972 10 28 84 784 64288
328	302371 288 534 5732 0.623589976397 8.715242464972 10 46 102 964 95752
329	302659 288 534 5732 0.623589976397 8.715242464972 10 64 102 982 97732
330	302947 538 534 5732 0.623589976397 8.715242464972 20 0 1 10 10
331	303485 288 534 5732 0.623589976397 8.715242464972 10 64 102 982 97732
332	303773 269 534 5732 0.623589976397 8.715242464972 10 0 0 0 0
333	304042 288 536 5734 0.623595736397 8.715251264972 10 64 102 982 97732
334	304330 288 537 5735 0.623595786397 8.715251314972 10 64 102 982 97732
335	304618 288 537 5735 0.623595786397 8.715251314972 10 64 102 982 97732
336	304906 279 538 5736 0.623595786397 8.715251314972 10 46 84 802 65620
337	305185 269 606 6260 0.623669356397 9.623634496397 10 0 9 45 285
338	305454 352 606 6260 0.623669356397 9.623634496397 10 7.08e-005 0.00010566 0.0007661 5.98386284e-008
339	305806 269 609 6263 0.715189364972 9.715189364972 10 0 9 45 285
340	306075 27 611 611 0.715189364972 0.715189364972 1 28 28 28 784
341	306102 306 612 6265 0.715189364972 9.715189364972 11 28 84 868 71344
342	306408 316 613 6266 0.715189364972 9.715189364972 11 46 102 1066 106156
343	306724 316 613 6266 0.715189364972 9.715189364972 11 64 102 1084 108136
344	307040 590 613 6266 0.715189364972 9.715189364972 22 0 1 11 11
345	307630 316 613 6266 0.715189364972 9.715189364972 11 64 102 1084 108136
346	307946 295 613 6266 0.715189364972 9.715189364972 11 0 0 0 0
347	308241 316 614 6267 0.715195124972 9.715198164972 11 64 102 1084 108136
348	308557 316 615 6268 0.715195174972 9.715198214972 11 64 102 1084 108136
349	308873 316 615 6268 0.715195174972 9.715198214972 11 64 102 1084 108136
350	309189 306 616 6269 0.715195174972 9.715198214972 11 46 84 886 72676
351	309495 306 618 6316 0.715195174972 9.715251314972 11 28 84 868 71344
352	309801 316 619 6317 0.715195174972 9.715251314972 11 46 102 1066 106156
353	310117 316 619 6317 0.715195174972 9.715251314972 11 64 102 1084 108136
354	310433 590 619 6317 0.715195174972 9.715251314972 22 0 1 11 11
355	311023 316 619 6317 0.715195174972 9.715251314972 11 64 102 1084 108136
356	311339 295 619 6317 0.715195174972 9.715251314972 11 0 0 0 0
357	311634 316 621 6319 0.715200934972 9.715260114972 11 64 102 1084 108136
358	311950 316 622 6320 0.715200984972 9.715260164972 11 64 102 1084 108136
359	312266 316 622 6320 0.715200984972 9.715260164972 11 64 102 1084 108136
360	312582 306 623 6321 0.715200984972 9.715260164972 11 46 84 886 72676
361	312888 269 712 6323 0.715295024972 9.715260164972 10 0 9 45 285
362	313157 352 712 6323 0.715295024972 9.715260164972 10 7.08e-005 0.00010566 0.0007661 5.98386284e-008
363	313509 259 715 6326 0.84426574409 9.84426574409 10 0 9 45 285
364	313768 26 717 717 0.84426574409 0.84426574409 1 28 28 28 784
365	313794 295 718 6328 0.84426574409 9.84426574409 11 28 84 868 71344
366	314089 305 719 6329 0.84426574409 9.84426574409 11 46 102 1066 106156
367	314394 305 719 6329 0.84426574409 9.84426574409 11 64 102 1084 108136
368	314699 568 719 6329 0.84426574409 9.84426574409 22 0 1 11 11
369	315267 305 719 6329 0.84426574409 9.84426574409 11 64 102 1084 108136
370	315572 284 719 6329 0.84426574409 9.84426574409 11 0 0 0 0
371	315856 305 720 6330 0.84427150409 9.84427454409 11 64 102 1084 108136
372	316161 305 721 6331 0.84427155409 9.84427459409 11 64 102 1084 108136
373	316466 305 721 6331 0.84427155409 9.84427459409 11 64 102 1084 108136
374	316771 295 722 6332 0.84427155409 9.84427459409 11 46 84 886 72676
375	317066 295 724 6379 0.84427155409 9.84432769409 11 28 84 868 71344
376	317361 305 725 6380 0.84427155409 9.84432769409 11 46 102 1066 106156
377	317666 305 725 6380 0.84427155409 9.84432769409 11 64 102 1084 108136
378	317971 568 725 6380 0.84427155409 9.84432769409 22 0 1 11 11
379	318539 305 725 6380 0.84427155409 9.84432769409 11 64 102 1084 108136
380	318844 284 725 6380 0.84427155409 9.84432769409 11 0 0 0 0
381	319128 305 727 6382 0.84427731409 9.84433649409 11 64 102 1084 108136
382	319433 305 728 6383 0.84427736409 9.84433654409 11 64 102 1084 108136
383	319738 305 728 6383 0.84427736409 9.84433654409 11 64 102 1084 108136
384	320043 295 729 6384 0.84427736409 9.84433654409 11 46 84 886 72676
385	320338 216 738 6334 0.84428621409 9.84427459409 8 28 84 616 50176
386	320554 223 739 6335 0.84428621409 9.84427459409 8 46 102 760 74944
387	320777 223 739 6335 0.84428621409 9.84427459409 8 64 102 778 76924
388	321000 416 739 6335 0.84428621409 9.84427459409 16 0 1 8 8
389	321416 223 739 6335 0.84428621409 9.84427459409 8 64 102 778 76924
390	321639 208 739 6335 0.84428621409 9.84427459409 8 0 0 0 0
391	321847 223 741 6337 0.84429197409 9.84428339409 8 64 102 778 76924
392	322070 223 742 6338 0.84429202409 9.84428344409 8 64 102 778 76924
393	322293 223 742 6338 0.84429202409 9.84428344409 8 64 102 778 76924
394	322516 216 743 6339 0.84429202409 9.84428344409 8 46 84 634 51508
395	322732 217 745 6498 0.84429202409 9.857998719849 8 28 84 616 50176
396	322949 224 746 6499 0.84429202409 9.857998719849 8 46 102 760 74944
397	323173 224 746 6499 0.84429202409 9.857998719849 8 64 102 778 76924
398	323397 418 746 6499 0.84429202409 9.857998719849 16 0 1 8 8
399	323815 224 746 6499 0.84429202409 9.857998719849 8 64 102 778 76924
400	324039 209 746 6499 0.84429202409 9.857998719849 8 0 0 0 0
401	324248 224 748 6501 0.84429778409 9.858007519849 8 64 102 778 76924
402	324472 224 749 6502 0.84429783409 9.858007569849 8 64 102 778 76924
403	324696 224 749 6502 0.84429783409 9.858007569849 8 64 102 778 76924
404	324920 217 750 6503 0.84429783409 9.858007569849 8 46 84 634 51508
405	325137 259 818 6386 0.84437140409 9.84433654409 10 0 9 45 285
406	325396 342 818 6386 0.84437140409 9.84433654409 10 7.08e-005 0.00010566 0.0007661 5.98386284e-008
407	325738 269 821 6389 0.847251737257 9.847251737257 10 0 9 45 285
408	326007 27 823 823 0.847251737257 0.847251737257 1 28 28 28 784
409	326034 306 824 6391 0.847251737257 9.847251737257 11 28 84 868 71344
410	326340 316 825 6392 0.847251737257 9.847251737257 11 46 102 1066 106156
411	326656 316 825 6392 0.847251737257 9.847251737257 11 64 102 1084 108136
412	326972 590 825 6392 0.847251737257 9.847251737257 22 0 1 11 11
413	327562 316 825 6392 0.847251737257 9.847251737257 11 64 102 1084 108136
414	327878 295 825 6392 0.847251737257 9.847251737257 11 0 0 0 0
415	328173 316 826 6393 0.847257497257 9.847260537257 11 64 102 1084 108136
416	328489 316 827 6394 0.847257547257 9.847260587257 11 64 102 1084 108136
417	328805 316 827 6394 0.847257547257 9.847260587257 11 64 102 1084 108136
418	329121 306 828 6395 0.847257547257 9.847260587257 11 46 84 886 72676
419	329427 306 830 6442 0.847257547257 9.847313687257 11 28 84 868 71344
420	329733 316 831 6443 0.847257547257 9.847313687257 11 46 102 1066 106156
421	330049 316 831 6443 0.847257547257 9.847313687257 11 64 102 1084 108136
422	330365 590 831 6443 0.847257547257 9.847313687257 22 0 1 11 11
423	330955 316 831 6443 0.847257547257 9.847313687257 11 64 102 1084 108136
424	331271 295 831 6443 0.847257547257 9.847313687257 11 0 0 0 0
425	331566 316 833 6445 0.847263307257 9.847322487257 11 64 102 1084 108136
426	331882 316 834 6446 0.847263357257 9.847322537257 11 64 102 1084 108136
427	332198 316 834 6446 0.847263357257 9.847322537257 11 64 102 1084 108136
428	332514 306 835 6447 0.847263357257 9.847322537257 11 46 84 886 72676
429	332820 362 896 6435 0.847328077257 9.847304837257 13 28 84 980 79184
430	333182 373 897 6436 0.847328077257 9.847304837257 13 46 102 1214 118676
431	333555 373 897 6436 0.847328077257 9.847304837257 13 64 102 1250 122636
432	333928 698 897 6436 0.847328077257 9.847304837257 26 0 1 13 13
433	334626 373 897 6436 0.847328077257 9.847304837257 13 64 102 1250 122636
434	334999 349 897 6436 0.847328077257 9.847304837257 13 0 0 0 0
435	335348 373 899 6438 0.847333837257 9.847313637257 13 64 102 1250 122636
436	335721 373 900 6439 0.847333887257 9.847313687257 13 64 102 1250 122636
437	336094 373 900 6439 0.847333887257 9.847313687257 13 64 102 1250 122636
438	336467 362 901 6440 0.847333887257 9.847313687257 13 46 84 1016 81848
439	336829 307 903 5430 0.847333887257 8.544892027383 11 28 84 812 65072
440	337136 316 904 5431 0.847333887257 8.544892027383 11 46 102 1010 97868
441	337452 316 904 5431 0.847333887257 8.544892027383 11 64 102 1046 101828
442	337768 592 904 5431 0.847333887257 8.544892027383 22 0 1 11 11
443	338360 316 904 5431 0.847333887257 8.544892027383 11 64 102 1046 101828
444	338676 296 904 5431 0.847333887257 8.544892027383 11 0 0 0 0
445	338972 316 906 5433 0.847339647257 8.544900827383 11 64 102 1046 101828
446	339288 316 907 5434 0.847339697257 8.544900877383 11 64 102 1046 101828
447	339604 316 907 5434 0.847339697257 8.544900877383 11 64 102 1046 101828
448	339920 307 908 5435 0.847339697257 8.544900877383 11 46 84 848 67736
449	340227 269 924 6449 0.847357397257 9.847322537257 10 0 9 45 285
450	340496 352 924 6449 0.847357397257 9.847322537257 10 7.08e-005 0.00010566 0.0007661 5.98386284e-008
451	340848 269 927 6452 0.857945619849 9.857945619849 10 0 9 45 285
452	341117 27 929 929 0.857945619849 0.857945619849 1 28 28 28 784
453	341144 306 930 6454 0.857945619849 9.857945619849 11 28 84 868 71344
454	341450 316 931 6455 0.857945619849 9.857945619849 11 46 102 1066 106156
455	341766 316 931 6455 0.857945619849 9.857945619849 11 64 102 1084 108136
456	342082 590 931 6455 0.857945619849 9.857945619849 22 0 1 11 11
457	342672 316 931 6455 0.857945619849 9.857945619849 11 64 102 1084 108136
458	342988 295 931 6455 0.857945619849 9.857945619849 11 0 0 0 0
459	343283 316 932 6456 0.857951379849 9.857954419849 11 64 102 1084 108136
460	343599 316 933 6457 0.857951429849 9.857954469849 11 64 102 1084 108136
461	343915 316 933 6457 0.857951429849 9.857954469849 11 64 102 1084 108136
462	344231 306 934 6458 0.857951429849 9.857954469849 11 46 84 886 72676
463	344537 307 936 6505 0.857951429849 9.858007569849 11 28 84 868 71344
464	344844 317 937 6506 0.857951429849 9.858007569849 11 46 102 1066 106156
465	345161 317 937 6506 0.857951429849 9.858007569849 11 64 102 1084 108136
466	345478 592 937 6506 0.857951429849 9.858007569849 22 0 1 11 11
467	346070 317 937 6506 0.857951429849 9.858007569849 11 64 102 1084 108136
468	346387 296 937 6506 0.857951429849 9.858007569849 11 0 0 0 0
469	346683 317 939 6508 0.857957189849 9.858016369849 11 64 102 1084 108136
470	347000 317 940 6509 0.857957239849 9.858016419849 11 64 102 1084 108136
471	347317 317 940 6509 0.857957239849 9.858016419849 11 64 102 1084 108136
472	347634 307 941 6510 0.857957239849 9.858016419849 11 46 84 886 72676
473	347941 362 1002 6172 0.858021959849 9.592897716389 13 28 84 980 79184
474	348303 373 1003 6173 0.858021959849 9.592897716389 13 46 102 1214 118676
475	348676 373 1003 6173 0.858021959849 9.592897716389 13 64 102 1250 122636
476	349049 698 1003 6173 0.858021959849 9.592897716389 26 0 1 13 13
477	349747 373 1003 6173 0.858021959849 9.592897716389 13 64 102 1250 122636
478	350120 349 1003 6173 0.858021959849 9.592897716389 13 0 0 0 0
479	350469 373 1005 6175 0.858027719849 9.592906516389 13 64 102 1250 122636
480	350842 373 1006 6176 0.858027769849 9.592906566389 13 64 102 1250 122636
481	351215 373 1006 6176 0.858027769849 9.592906566389 13 64 102 1250 122636
482	351588 362 1007 6177 0.858027769849 9.592906566389 13 46 84 1016 81848
483	351950 334 1009 6460 0.858027769849 9.857954469849 12 28 84 896 72128
484	352284 344 1010 6461 0.858027769849 9.857954469849 12 46 102 1112 108272
485	352628 344 1010 6461 0.858027769849 9.857954469849 12 64 102 1148 112232
486	352972 644 1010 6461 0.858027769849 9.857954469849 24 0 1 12 12
487	353616 344 1010 6461 0.858027769849 9.857954469849 12 64 102 1148 112232
488	353960 322 1010 6461 0.858027769849 9.857954469849 12 0 0 0 0
489	354282 344 1012 6463 0.858033529849 9.857963269849 12 64 102 1148 112232
490	354626 344 1013 6464 0.858033579849 9.857963319849 12 64 102 1148 112232
491	354970 344 1013 6464 0.858033579849 9.857963319849 12 64 102 1148 112232
492	355314 334 1014 6465 0.858033579849 9.857963319849 12 46 84 932 74792
493	355648 270 1030 6512 0.858051279849 9.858016419849 10 0 9 45 285
494	355918 353 1030 6512 0.858051279849 9.858016419849 10 7.08e-005 0.00010566 0.0007661 5.98386284e-008

