version 2
run Ping-0-20210121-15:23:00-2976
attr configname Ping
attr datetime 20210121-15:23:00
attr experiment Ping
attr inifile 10Host_SpineLeaf.ini
attr iterationvars ""
attr iterationvarsf ""
attr measurement ""
attr network spineLeafNetwork
attr processid 2976
attr repetition 0
attr replication #0
attr resultdir results
attr runnumber 0
attr seedset 0
param **.H*.numApps 1
param **.H*.app[0].typename "\"PingApp\""
param **.H*.app[0].destAddr "\"H10\""
param **.H*.app[0].count 10
param *.Visualizer.interfaceTableVisualizer.displayInterfaceTables true
param *.Visualizer.interfaceTableVisualizer.textColor "\"white\""
param *.Visualizer.interfaceTableVisualizer.displayBackground true
param *.Visualizer.interfaceTableVisualizer.displayWiredInterfacesAtConnections false
param *.Visualizer.interfaceTableVisualizer.backgroundColor "\"black\""
param *.Visualizer.interfaceTableVisualizer.opacity 0.75
param *.Visualizer.interfaceTableVisualizer.format "\"%N %\\\\%n/%l%\\\\%m\""
param **.configurator.config "xmldoc(\"10Host_SpineLeaf_Routing.xml\")"

scalar spineLeafNetwork.leaf1.lo[0].lo rcvdPkFromHl:count 0
attr interpolationmode none
attr source packetReceivedFromUpper
attr title "packets received from higher layer, count"
scalar spineLeafNetwork.leaf1.lo[0].lo rcvdPkFromHl:sum(packetBytes) 0
attr interpolationmode none
attr source packetReceivedFromUpper
attr title "packets received from higher layer, sum(packetBytes)"
scalar spineLeafNetwork.leaf1.lo[0].lo passedUpPk:count 0
attr interpolationmode none
attr source packetSentToUpper
attr title "packets passed to higher layer, count"
scalar spineLeafNetwork.leaf1.lo[0].lo passedUpPk:sum(packetBytes) 0
attr interpolationmode none
attr source packetSentToUpper
attr title "packets passed to higher layer, sum(packetBytes)"
scalar spineLeafNetwork.leaf1.eth[0].mac.queue packetPopped:count 9
attr interpolationmode none
attr title "packet popped, count"
scalar spineLeafNetwork.leaf1.eth[0].mac.queue packetPopped:sum(packetBytes) 880
attr interpolationmode none
attr title "packet popped, sum(packetBytes)"
statistic spineLeafNetwork.leaf1.eth[0].mac.queue queueingTime:histogram
field count 9
field mean 0
field stddev 0
field min 0
field max 0
field sum 0
field sqrsum 0
attr interpolationmode none
attr source queueingTime(packetPopped)
attr title "queueing times, histogram"
attr unit s
bin	-inf	0
bin	-0.5	0
bin	-0.48	0
bin	-0.46	0
bin	-0.44	0
bin	-0.42	0
bin	-0.4	0
bin	-0.38	0
bin	-0.36	0
bin	-0.34	0
bin	-0.32	0
bin	-0.3	0
bin	-0.28	0
bin	-0.26	0
bin	-0.24	0
bin	-0.22	0
bin	-0.2	0
bin	-0.18	0
bin	-0.16	0
bin	-0.14	0
bin	-0.12	0
bin	-0.1	0
bin	-0.08	0
bin	-0.06	0
bin	-0.04	0
bin	-0.02	0
bin	0	9
bin	0.02	0
bin	0.04	0
bin	0.06	0
bin	0.08	0
bin	0.1	0
bin	0.12	0
bin	0.14	0
bin	0.16	0
bin	0.18	0
bin	0.2	0
bin	0.22	0
bin	0.24	0
bin	0.26	0
bin	0.28	0
bin	0.3	0
bin	0.32	0
bin	0.34	0
bin	0.36	0
bin	0.38	0
bin	0.4	0
bin	0.42	0
bin	0.44	0
bin	0.46	0
bin	0.48	0
bin	0.5	0
scalar spineLeafNetwork.leaf1.eth[0].mac.queue queueLength:max 1
attr interpolationmode sample-hold
attr source "count(packetPushed) - count(packetPopped) - count(packetRemoved) - count(packetDropped)"
attr title "queue length, max"
scalar spineLeafNetwork.leaf1.eth[0].mac.queue queueLength:timeavg 0
attr interpolationmode sample-hold
attr source "count(packetPushed) - count(packetPopped) - count(packetRemoved) - count(packetDropped)"
attr title "queue length, timeavg"
scalar spineLeafNetwork.leaf1.eth[0].mac.queue packetPushed:count 9
attr interpolationmode none
attr title "packet pushed, count"
scalar spineLeafNetwork.leaf1.eth[0].mac.queue packetPushed:sum(packetBytes) 880
attr interpolationmode none
attr title "packet pushed, sum(packetBytes)"
scalar spineLeafNetwork.leaf1.eth[0].mac.queue packetDropQueueOverflow:count 0
attr interpolationmode none
attr source packetDropReasonIsQueueOverflow(packetDropped)
attr title "packet drops: queue overflow, count"
scalar spineLeafNetwork.leaf1.eth[0].mac.queue packetDropQueueOverflow:sum(packetBytes) 0
attr interpolationmode none
attr source packetDropReasonIsQueueOverflow(packetDropped)
attr title "packet drops: queue overflow, sum(packetBytes)"
scalar spineLeafNetwork.leaf1.eth[0].mac.queue packetRemoved:count 0
attr interpolationmode none
attr title "packets removed, count"
scalar spineLeafNetwork.leaf1.eth[0].mac.queue packetRemoved:sum(packetBytes) 0
attr interpolationmode none
attr title "packets removed, sum(packetBytes)"
scalar spineLeafNetwork.leaf1.eth[0].mac "simulated time" 10.857945619849
scalar spineLeafNetwork.leaf1.eth[0].mac full-duplex 1
scalar spineLeafNetwork.leaf1.eth[0].mac "frames/sec sent" 0.82888608168634
scalar spineLeafNetwork.leaf1.eth[0].mac "frames/sec rcvd" 0.82888608168634
scalar spineLeafNetwork.leaf1.eth[0].mac "bits/sec sent" 648.37311278576
scalar spineLeafNetwork.leaf1.eth[0].mac "bits/sec rcvd" 648.37311278576
scalar spineLeafNetwork.leaf1.eth[0].mac "rx channel idle (%)" 100
scalar spineLeafNetwork.leaf1.eth[0].mac "rx channel utilization (%)" 0
scalar spineLeafNetwork.leaf1.eth[0].mac txPk:count 9
attr interpolationmode none
attr source packetSentToLower
attr title "packets transmitted, count"
scalar spineLeafNetwork.leaf1.eth[0].mac txPk:sum(packetBytes) 880
attr interpolationmode none
attr source packetSentToLower
attr title "packets transmitted, sum(packetBytes)"
scalar spineLeafNetwork.leaf1.eth[0].mac packetReceivedFromUpper:count 9
attr interpolationmode none
attr source packetReceivedFromUpper
attr title "packet bytes from higher layer, count"
scalar spineLeafNetwork.leaf1.eth[0].mac packetReceivedFromUpper:sum(packetBytes) 862
attr interpolationmode none
attr source packetReceivedFromUpper
attr title "packet bytes from higher layer, sum(packetBytes)"
scalar spineLeafNetwork.leaf1.eth[0].mac passedUpPk:count 9
attr interpolationmode none
attr source packetSentToUpper
attr title "packets passed to higher layer, count"
scalar spineLeafNetwork.leaf1.eth[0].mac passedUpPk:sum(packetBytes) 880
attr interpolationmode none
attr source packetSentToUpper
attr title "packets passed to higher layer, sum(packetBytes)"
scalar spineLeafNetwork.leaf1.eth[0].mac packetDropIncorrectlyReceived:count 0
attr interpolationmode none
attr source packetDropReasonIsIncorrectlyReceived(packetDropped)
attr title "packet drop: incorrectly received, count"
scalar spineLeafNetwork.leaf1.eth[0].mac packetDropIncorrectlyReceived:sum(packetBytes) 0
attr interpolationmode none
attr source packetDropReasonIsIncorrectlyReceived(packetDropped)
attr title "packet drop: incorrectly received, sum(packetBytes)"
scalar spineLeafNetwork.leaf1.eth[0].mac packetDropInterfaceDown:count 0
attr interpolationmode none
attr source packetDropReasonIsInterfaceDown(packetDropped)
attr title "packet drop: interface down, count"
scalar spineLeafNetwork.leaf1.eth[0].mac packetDropInterfaceDown:sum(packetBytes) 0
attr interpolationmode none
attr source packetDropReasonIsInterfaceDown(packetDropped)
attr title "packet drop: interface down, sum(packetBytes)"
scalar spineLeafNetwork.leaf1.eth[0].mac packetDropNotAddressedToUs:count 0
attr interpolationmode none
attr source packetDropReasonIsNotAddressedToUs(packetDropped)
attr title "packet drop: not addressed to us, count"
scalar spineLeafNetwork.leaf1.eth[0].mac packetDropNotAddressedToUs:sum(packetBytes) 0
attr interpolationmode none
attr source packetDropReasonIsNotAddressedToUs(packetDropped)
attr title "packet drop: not addressed to us, sum(packetBytes)"
scalar spineLeafNetwork.leaf1.eth[0].mac rxPausePkUnits:count 0
attr interpolationmode none
attr title "pause units received, count"
scalar spineLeafNetwork.leaf1.eth[0].mac rxPausePkUnits:sum 0
attr interpolationmode none
attr title "pause units received, sum"
scalar spineLeafNetwork.leaf1.eth[0].mac txPausePkUnits:count 0
attr interpolationmode none
attr title "pause units sent, count"
scalar spineLeafNetwork.leaf1.eth[0].mac txPausePkUnits:sum 0
attr interpolationmode none
attr title "pause units sent, sum"
scalar spineLeafNetwork.leaf1.eth[0].mac rxPkOk:count 9
attr interpolationmode none
attr source rxPkOk
attr title "packets received OK, count"
scalar spineLeafNetwork.leaf1.eth[0].mac rxPkOk:sum(packetBytes) 880
attr interpolationmode none
attr source rxPkOk
attr title "packets received OK, sum(packetBytes)"
scalar spineLeafNetwork.leaf1.eth[0].encap pauseSent:count 0
attr title "pause sent, count"
scalar spineLeafNetwork.leaf1.eth[0].encap pauseSent:sum 0
attr title "pause sent, sum"
scalar spineLeafNetwork.leaf1.eth[0].encap decapPk:count 9
attr interpolationmode none
attr source decapPk
attr title "packets decapsulated, count"
scalar spineLeafNetwork.leaf1.eth[0].encap decapPk:sum(packetBytes) 718
attr interpolationmode none
attr source decapPk
attr title "packets decapsulated, sum(packetBytes)"
scalar spineLeafNetwork.leaf1.eth[0].encap encapPk:count 9
attr interpolationmode none
attr source encapPk
attr title "packets encapsulated, count"
scalar spineLeafNetwork.leaf1.eth[0].encap encapPk:sum(packetBytes) 700
attr interpolationmode none
attr source encapPk
attr title "packets encapsulated, sum(packetBytes)"
scalar spineLeafNetwork.leaf1.eth[1].mac.queue packetPopped:count 11
attr interpolationmode none
attr title "packet popped, count"
scalar spineLeafNetwork.leaf1.eth[1].mac.queue packetPopped:sum(packetBytes) 1084
attr interpolationmode none
attr title "packet popped, sum(packetBytes)"
statistic spineLeafNetwork.leaf1.eth[1].mac.queue queueingTime:histogram
field count 11
field mean 0
field stddev 0
field min 0
field max 0
field sum 0
field sqrsum 0
attr interpolationmode none
attr source queueingTime(packetPopped)
attr title "queueing times, histogram"
attr unit s
bin	-inf	0
bin	-0.5	0
bin	-0.48	0
bin	-0.46	0
bin	-0.44	0
bin	-0.42	0
bin	-0.4	0
bin	-0.38	0
bin	-0.36	0
bin	-0.34	0
bin	-0.32	0
bin	-0.3	0
bin	-0.28	0
bin	-0.26	0
bin	-0.24	0
bin	-0.22	0
bin	-0.2	0
bin	-0.18	0
bin	-0.16	0
bin	-0.14	0
bin	-0.12	0
bin	-0.1	0
bin	-0.08	0
bin	-0.06	0
bin	-0.04	0
bin	-0.02	0
bin	0	11
bin	0.02	0
bin	0.04	0
bin	0.06	0
bin	0.08	0
bin	0.1	0
bin	0.12	0
bin	0.14	0
bin	0.16	0
bin	0.18	0
bin	0.2	0
bin	0.22	0
bin	0.24	0
bin	0.26	0
bin	0.28	0
bin	0.3	0
bin	0.32	0
bin	0.34	0
bin	0.36	0
bin	0.38	0
bin	0.4	0
bin	0.42	0
bin	0.44	0
bin	0.46	0
bin	0.48	0
bin	0.5	0
scalar spineLeafNetwork.leaf1.eth[1].mac.queue queueLength:max 1
attr interpolationmode sample-hold
attr source "count(packetPushed) - count(packetPopped) - count(packetRemoved) - count(packetDropped)"
attr title "queue length, max"
scalar spineLeafNetwork.leaf1.eth[1].mac.queue queueLength:timeavg 0
attr interpolationmode sample-hold
attr source "count(packetPushed) - count(packetPopped) - count(packetRemoved) - count(packetDropped)"
attr title "queue length, timeavg"
scalar spineLeafNetwork.leaf1.eth[1].mac.queue packetPushed:count 11
attr interpolationmode none
attr title "packet pushed, count"
scalar spineLeafNetwork.leaf1.eth[1].mac.queue packetPushed:sum(packetBytes) 1084
attr interpolationmode none
attr title "packet pushed, sum(packetBytes)"
scalar spineLeafNetwork.leaf1.eth[1].mac.queue packetDropQueueOverflow:count 0
attr interpolationmode none
attr source packetDropReasonIsQueueOverflow(packetDropped)
attr title "packet drops: queue overflow, count"
scalar spineLeafNetwork.leaf1.eth[1].mac.queue packetDropQueueOverflow:sum(packetBytes) 0
attr interpolationmode none
attr source packetDropReasonIsQueueOverflow(packetDropped)
attr title "packet drops: queue overflow, sum(packetBytes)"
scalar spineLeafNetwork.leaf1.eth[1].mac.queue packetRemoved:count 0
attr interpolationmode none
attr title "packets removed, count"
scalar spineLeafNetwork.leaf1.eth[1].mac.queue packetRemoved:sum(packetBytes) 0
attr interpolationmode none
attr title "packets removed, sum(packetBytes)"
scalar spineLeafNetwork.leaf1.eth[1].mac "simulated time" 10.857945619849
scalar spineLeafNetwork.leaf1.eth[1].mac full-duplex 1
scalar spineLeafNetwork.leaf1.eth[1].mac "frames/sec sent" 1.0130829887277
scalar spineLeafNetwork.leaf1.eth[1].mac "frames/sec rcvd" 0.92098453520704
scalar spineLeafNetwork.leaf1.eth[1].mac "bits/sec sent" 798.67778893155
scalar spineLeafNetwork.leaf1.eth[1].mac "bits/sec rcvd" 723.52545085865
scalar spineLeafNetwork.leaf1.eth[1].mac "rx channel idle (%)" 100
scalar spineLeafNetwork.leaf1.eth[1].mac "rx channel utilization (%)" 0
scalar spineLeafNetwork.leaf1.eth[1].mac txPk:count 11
attr interpolationmode none
attr source packetSentToLower
attr title "packets transmitted, count"
scalar spineLeafNetwork.leaf1.eth[1].mac txPk:sum(packetBytes) 1084
attr interpolationmode none
attr source packetSentToLower
attr title "packets transmitted, sum(packetBytes)"
scalar spineLeafNetwork.leaf1.eth[1].mac packetReceivedFromUpper:count 11
attr interpolationmode none
attr source packetReceivedFromUpper
attr title "packet bytes from higher layer, count"
scalar spineLeafNetwork.leaf1.eth[1].mac packetReceivedFromUpper:sum(packetBytes) 1066
attr interpolationmode none
attr source packetReceivedFromUpper
attr title "packet bytes from higher layer, sum(packetBytes)"
scalar spineLeafNetwork.leaf1.eth[1].mac passedUpPk:count 10
attr interpolationmode none
attr source packetSentToUpper
attr title "packets passed to higher layer, count"
scalar spineLeafNetwork.leaf1.eth[1].mac passedUpPk:sum(packetBytes) 982
attr interpolationmode none
attr source packetSentToUpper
attr title "packets passed to higher layer, sum(packetBytes)"
scalar spineLeafNetwork.leaf1.eth[1].mac packetDropIncorrectlyReceived:count 0
attr interpolationmode none
attr source packetDropReasonIsIncorrectlyReceived(packetDropped)
attr title "packet drop: incorrectly received, count"
scalar spineLeafNetwork.leaf1.eth[1].mac packetDropIncorrectlyReceived:sum(packetBytes) 0
attr interpolationmode none
attr source packetDropReasonIsIncorrectlyReceived(packetDropped)
attr title "packet drop: incorrectly received, sum(packetBytes)"
scalar spineLeafNetwork.leaf1.eth[1].mac packetDropInterfaceDown:count 0
attr interpolationmode none
attr source packetDropReasonIsInterfaceDown(packetDropped)
attr title "packet drop: interface down, count"
scalar spineLeafNetwork.leaf1.eth[1].mac packetDropInterfaceDown:sum(packetBytes) 0
attr interpolationmode none
attr source packetDropReasonIsInterfaceDown(packetDropped)
attr title "packet drop: interface down, sum(packetBytes)"
scalar spineLeafNetwork.leaf1.eth[1].mac packetDropNotAddressedToUs:count 0
attr interpolationmode none
attr source packetDropReasonIsNotAddressedToUs(packetDropped)
attr title "packet drop: not addressed to us, count"
scalar spineLeafNetwork.leaf1.eth[1].mac packetDropNotAddressedToUs:sum(packetBytes) 0
attr interpolationmode none
attr source packetDropReasonIsNotAddressedToUs(packetDropped)
attr title "packet drop: not addressed to us, sum(packetBytes)"
scalar spineLeafNetwork.leaf1.eth[1].mac rxPausePkUnits:count 0
attr interpolationmode none
attr title "pause units received, count"
scalar spineLeafNetwork.leaf1.eth[1].mac rxPausePkUnits:sum 0
attr interpolationmode none
attr title "pause units received, sum"
scalar spineLeafNetwork.leaf1.eth[1].mac txPausePkUnits:count 0
attr interpolationmode none
attr title "pause units sent, count"
scalar spineLeafNetwork.leaf1.eth[1].mac txPausePkUnits:sum 0
attr interpolationmode none
attr title "pause units sent, sum"
scalar spineLeafNetwork.leaf1.eth[1].mac rxPkOk:count 10
attr interpolationmode none
attr source rxPkOk
attr title "packets received OK, count"
scalar spineLeafNetwork.leaf1.eth[1].mac rxPkOk:sum(packetBytes) 982
attr interpolationmode none
attr source rxPkOk
attr title "packets received OK, sum(packetBytes)"
scalar spineLeafNetwork.leaf1.eth[1].encap pauseSent:count 0
attr title "pause sent, count"
scalar spineLeafNetwork.leaf1.eth[1].encap pauseSent:sum 0
attr title "pause sent, sum"
scalar spineLeafNetwork.leaf1.eth[1].encap decapPk:count 10
attr interpolationmode none
attr source decapPk
attr title "packets decapsulated, count"
scalar spineLeafNetwork.leaf1.eth[1].encap decapPk:sum(packetBytes) 802
attr interpolationmode none
attr source decapPk
attr title "packets decapsulated, sum(packetBytes)"
scalar spineLeafNetwork.leaf1.eth[1].encap encapPk:count 11
attr interpolationmode none
attr source encapPk
attr title "packets encapsulated, count"
scalar spineLeafNetwork.leaf1.eth[1].encap encapPk:sum(packetBytes) 868
attr interpolationmode none
attr source encapPk
attr title "packets encapsulated, sum(packetBytes)"
scalar spineLeafNetwork.leaf1.eth[2].mac.queue packetPopped:count 14
attr interpolationmode none
attr title "packet popped, count"
scalar spineLeafNetwork.leaf1.eth[2].mac.queue packetPopped:sum(packetBytes) 1352
attr interpolationmode none
attr title "packet popped, sum(packetBytes)"
statistic spineLeafNetwork.leaf1.eth[2].mac.queue queueingTime:histogram
field count 14
field mean 0
field stddev 0
field min 0
field max 0
field sum 0
field sqrsum 0
attr interpolationmode none
attr source queueingTime(packetPopped)
attr title "queueing times, histogram"
attr unit s
bin	-inf	0
bin	-0.5	0
bin	-0.48	0
bin	-0.46	0
bin	-0.44	0
bin	-0.42	0
bin	-0.4	0
bin	-0.38	0
bin	-0.36	0
bin	-0.34	0
bin	-0.32	0
bin	-0.3	0
bin	-0.28	0
bin	-0.26	0
bin	-0.24	0
bin	-0.22	0
bin	-0.2	0
bin	-0.18	0
bin	-0.16	0
bin	-0.14	0
bin	-0.12	0
bin	-0.1	0
bin	-0.08	0
bin	-0.06	0
bin	-0.04	0
bin	-0.02	0
bin	0	14
bin	0.02	0
bin	0.04	0
bin	0.06	0
bin	0.08	0
bin	0.1	0
bin	0.12	0
bin	0.14	0
bin	0.16	0
bin	0.18	0
bin	0.2	0
bin	0.22	0
bin	0.24	0
bin	0.26	0
bin	0.28	0
bin	0.3	0
bin	0.32	0
bin	0.34	0
bin	0.36	0
bin	0.38	0
bin	0.4	0
bin	0.42	0
bin	0.44	0
bin	0.46	0
bin	0.48	0
bin	0.5	0
scalar spineLeafNetwork.leaf1.eth[2].mac.queue queueLength:max 1
attr interpolationmode sample-hold
attr source "count(packetPushed) - count(packetPopped) - count(packetRemoved) - count(packetDropped)"
attr title "queue length, max"
scalar spineLeafNetwork.leaf1.eth[2].mac.queue queueLength:timeavg 0
attr interpolationmode sample-hold
attr source "count(packetPushed) - count(packetPopped) - count(packetRemoved) - count(packetDropped)"
attr title "queue length, timeavg"
scalar spineLeafNetwork.leaf1.eth[2].mac.queue packetPushed:count 14
attr interpolationmode none
attr title "packet pushed, count"
scalar spineLeafNetwork.leaf1.eth[2].mac.queue packetPushed:sum(packetBytes) 1352
attr interpolationmode none
attr title "packet pushed, sum(packetBytes)"
scalar spineLeafNetwork.leaf1.eth[2].mac.queue packetDropQueueOverflow:count 0
attr interpolationmode none
attr source packetDropReasonIsQueueOverflow(packetDropped)
attr title "packet drops: queue overflow, count"
scalar spineLeafNetwork.leaf1.eth[2].mac.queue packetDropQueueOverflow:sum(packetBytes) 0
attr interpolationmode none
attr source packetDropReasonIsQueueOverflow(packetDropped)
attr title "packet drops: queue overflow, sum(packetBytes)"
scalar spineLeafNetwork.leaf1.eth[2].mac.queue packetRemoved:count 0
attr interpolationmode none
attr title "packets removed, count"
scalar spineLeafNetwork.leaf1.eth[2].mac.queue packetRemoved:sum(packetBytes) 0
attr interpolationmode none
attr title "packets removed, sum(packetBytes)"
scalar spineLeafNetwork.leaf1.eth[2].mac "simulated time" 10.857945619849
scalar spineLeafNetwork.leaf1.eth[2].mac full-duplex 1
scalar spineLeafNetwork.leaf1.eth[2].mac "frames/sec sent" 1.2893783492899
scalar spineLeafNetwork.leaf1.eth[2].mac "frames/sec rcvd" 1.3814768028106
scalar spineLeafNetwork.leaf1.eth[2].mac "bits/sec sent" 996.13687327994
scalar spineLeafNetwork.leaf1.eth[2].mac "bits/sec rcvd" 1071.2892113528
scalar spineLeafNetwork.leaf1.eth[2].mac "rx channel idle (%)" 100
scalar spineLeafNetwork.leaf1.eth[2].mac "rx channel utilization (%)" 0
scalar spineLeafNetwork.leaf1.eth[2].mac txPk:count 14
attr interpolationmode none
attr source packetSentToLower
attr title "packets transmitted, count"
scalar spineLeafNetwork.leaf1.eth[2].mac txPk:sum(packetBytes) 1352
attr interpolationmode none
attr source packetSentToLower
attr title "packets transmitted, sum(packetBytes)"
scalar spineLeafNetwork.leaf1.eth[2].mac packetReceivedFromUpper:count 14
attr interpolationmode none
attr source packetReceivedFromUpper
attr title "packet bytes from higher layer, count"
scalar spineLeafNetwork.leaf1.eth[2].mac packetReceivedFromUpper:sum(packetBytes) 1316
attr interpolationmode none
attr source packetReceivedFromUpper
attr title "packet bytes from higher layer, sum(packetBytes)"
scalar spineLeafNetwork.leaf1.eth[2].mac passedUpPk:count 15
attr interpolationmode none
attr source packetSentToUpper
attr title "packets passed to higher layer, count"
scalar spineLeafNetwork.leaf1.eth[2].mac passedUpPk:sum(packetBytes) 1454
attr interpolationmode none
attr source packetSentToUpper
attr title "packets passed to higher layer, sum(packetBytes)"
scalar spineLeafNetwork.leaf1.eth[2].mac packetDropIncorrectlyReceived:count 0
attr interpolationmode none
attr source packetDropReasonIsIncorrectlyReceived(packetDropped)
attr title "packet drop: incorrectly received, count"
scalar spineLeafNetwork.leaf1.eth[2].mac packetDropIncorrectlyReceived:sum(packetBytes) 0
attr interpolationmode none
attr source packetDropReasonIsIncorrectlyReceived(packetDropped)
attr title "packet drop: incorrectly received, sum(packetBytes)"
scalar spineLeafNetwork.leaf1.eth[2].mac packetDropInterfaceDown:count 0
attr interpolationmode none
attr source packetDropReasonIsInterfaceDown(packetDropped)
attr title "packet drop: interface down, count"
scalar spineLeafNetwork.leaf1.eth[2].mac packetDropInterfaceDown:sum(packetBytes) 0
attr interpolationmode none
attr source packetDropReasonIsInterfaceDown(packetDropped)
attr title "packet drop: interface down, sum(packetBytes)"
scalar spineLeafNetwork.leaf1.eth[2].mac packetDropNotAddressedToUs:count 0
attr interpolationmode none
attr source packetDropReasonIsNotAddressedToUs(packetDropped)
attr title "packet drop: not addressed to us, count"
scalar spineLeafNetwork.leaf1.eth[2].mac packetDropNotAddressedToUs:sum(packetBytes) 0
attr interpolationmode none
attr source packetDropReasonIsNotAddressedToUs(packetDropped)
attr title "packet drop: not addressed to us, sum(packetBytes)"
scalar spineLeafNetwork.leaf1.eth[2].mac rxPausePkUnits:count 0
attr interpolationmode none
attr title "pause units received, count"
scalar spineLeafNetwork.leaf1.eth[2].mac rxPausePkUnits:sum 0
attr interpolationmode none
attr title "pause units received, sum"
scalar spineLeafNetwork.leaf1.eth[2].mac txPausePkUnits:count 0
attr interpolationmode none
attr title "pause units sent, count"
scalar spineLeafNetwork.leaf1.eth[2].mac txPausePkUnits:sum 0
attr interpolationmode none
attr title "pause units sent, sum"
scalar spineLeafNetwork.leaf1.eth[2].mac rxPkOk:count 15
attr interpolationmode none
attr source rxPkOk
attr title "packets received OK, count"
scalar spineLeafNetwork.leaf1.eth[2].mac rxPkOk:sum(packetBytes) 1454
attr interpolationmode none
attr source rxPkOk
attr title "packets received OK, sum(packetBytes)"
scalar spineLeafNetwork.leaf1.eth[2].encap pauseSent:count 0
attr title "pause sent, count"
scalar spineLeafNetwork.leaf1.eth[2].encap pauseSent:sum 0
attr title "pause sent, sum"
scalar spineLeafNetwork.leaf1.eth[2].encap decapPk:count 15
attr interpolationmode none
attr source decapPk
attr title "packets decapsulated, count"
scalar spineLeafNetwork.leaf1.eth[2].encap decapPk:sum(packetBytes) 1184
attr interpolationmode none
attr source decapPk
attr title "packets decapsulated, sum(packetBytes)"
scalar spineLeafNetwork.leaf1.eth[2].encap encapPk:count 14
attr interpolationmode none
attr source encapPk
attr title "packets encapsulated, count"
scalar spineLeafNetwork.leaf1.eth[2].encap encapPk:sum(packetBytes) 1064
attr interpolationmode none
attr source encapPk
attr title "packets encapsulated, sum(packetBytes)"
scalar spineLeafNetwork.leaf1.eth[3].mac.queue packetPopped:count 11
attr interpolationmode none
attr title "packet popped, count"
scalar spineLeafNetwork.leaf1.eth[3].mac.queue packetPopped:sum(packetBytes) 1084
attr interpolationmode none
attr title "packet popped, sum(packetBytes)"
statistic spineLeafNetwork.leaf1.eth[3].mac.queue queueingTime:histogram
field count 11
field mean 0
field stddev 0
field min 0
field max 0
field sum 0
field sqrsum 0
attr interpolationmode none
attr source queueingTime(packetPopped)
attr title "queueing times, histogram"
attr unit s
bin	-inf	0
bin	-0.5	0
bin	-0.48	0
bin	-0.46	0
bin	-0.44	0
bin	-0.42	0
bin	-0.4	0
bin	-0.38	0
bin	-0.36	0
bin	-0.34	0
bin	-0.32	0
bin	-0.3	0
bin	-0.28	0
bin	-0.26	0
bin	-0.24	0
bin	-0.22	0
bin	-0.2	0
bin	-0.18	0
bin	-0.16	0
bin	-0.14	0
bin	-0.12	0
bin	-0.1	0
bin	-0.08	0
bin	-0.06	0
bin	-0.04	0
bin	-0.02	0
bin	0	11
bin	0.02	0
bin	0.04	0
bin	0.06	0
bin	0.08	0
bin	0.1	0
bin	0.12	0
bin	0.14	0
bin	0.16	0
bin	0.18	0
bin	0.2	0
bin	0.22	0
bin	0.24	0
bin	0.26	0
bin	0.28	0
bin	0.3	0
bin	0.32	0
bin	0.34	0
bin	0.36	0
bin	0.38	0
bin	0.4	0
bin	0.42	0
bin	0.44	0
bin	0.46	0
bin	0.48	0
bin	0.5	0
scalar spineLeafNetwork.leaf1.eth[3].mac.queue queueLength:max 1
attr interpolationmode sample-hold
attr source "count(packetPushed) - count(packetPopped) - count(packetRemoved) - count(packetDropped)"
attr title "queue length, max"
scalar spineLeafNetwork.leaf1.eth[3].mac.queue queueLength:timeavg 0
attr interpolationmode sample-hold
attr source "count(packetPushed) - count(packetPopped) - count(packetRemoved) - count(packetDropped)"
attr title "queue length, timeavg"
scalar spineLeafNetwork.leaf1.eth[3].mac.queue packetPushed:count 11
attr interpolationmode none
attr title "packet pushed, count"
scalar spineLeafNetwork.leaf1.eth[3].mac.queue packetPushed:sum(packetBytes) 1084
attr interpolationmode none
attr title "packet pushed, sum(packetBytes)"
scalar spineLeafNetwork.leaf1.eth[3].mac.queue packetDropQueueOverflow:count 0
attr interpolationmode none
attr source packetDropReasonIsQueueOverflow(packetDropped)
attr title "packet drops: queue overflow, count"
scalar spineLeafNetwork.leaf1.eth[3].mac.queue packetDropQueueOverflow:sum(packetBytes) 0
attr interpolationmode none
attr source packetDropReasonIsQueueOverflow(packetDropped)
attr title "packet drops: queue overflow, sum(packetBytes)"
scalar spineLeafNetwork.leaf1.eth[3].mac.queue packetRemoved:count 0
attr interpolationmode none
attr title "packets removed, count"
scalar spineLeafNetwork.leaf1.eth[3].mac.queue packetRemoved:sum(packetBytes) 0
attr interpolationmode none
attr title "packets removed, sum(packetBytes)"
scalar spineLeafNetwork.leaf1.eth[3].mac "simulated time" 10.857945619849
scalar spineLeafNetwork.leaf1.eth[3].mac full-duplex 1
scalar spineLeafNetwork.leaf1.eth[3].mac "frames/sec sent" 1.0130829887277
scalar spineLeafNetwork.leaf1.eth[3].mac "frames/sec rcvd" 1.0130829887277
scalar spineLeafNetwork.leaf1.eth[3].mac "bits/sec sent" 798.67778893155
scalar spineLeafNetwork.leaf1.eth[3].mac "bits/sec rcvd" 798.67778893155
scalar spineLeafNetwork.leaf1.eth[3].mac "rx channel idle (%)" 100
scalar spineLeafNetwork.leaf1.eth[3].mac "rx channel utilization (%)" 0
scalar spineLeafNetwork.leaf1.eth[3].mac txPk:count 11
attr interpolationmode none
attr source packetSentToLower
attr title "packets transmitted, count"
scalar spineLeafNetwork.leaf1.eth[3].mac txPk:sum(packetBytes) 1084
attr interpolationmode none
attr source packetSentToLower
attr title "packets transmitted, sum(packetBytes)"
scalar spineLeafNetwork.leaf1.eth[3].mac packetReceivedFromUpper:count 11
attr interpolationmode none
attr source packetReceivedFromUpper
attr title "packet bytes from higher layer, count"
scalar spineLeafNetwork.leaf1.eth[3].mac packetReceivedFromUpper:sum(packetBytes) 1066
attr interpolationmode none
attr source packetReceivedFromUpper
attr title "packet bytes from higher layer, sum(packetBytes)"
scalar spineLeafNetwork.leaf1.eth[3].mac passedUpPk:count 11
attr interpolationmode none
attr source packetSentToUpper
attr title "packets passed to higher layer, count"
scalar spineLeafNetwork.leaf1.eth[3].mac passedUpPk:sum(packetBytes) 1084
attr interpolationmode none
attr source packetSentToUpper
attr title "packets passed to higher layer, sum(packetBytes)"
scalar spineLeafNetwork.leaf1.eth[3].mac packetDropIncorrectlyReceived:count 0
attr interpolationmode none
attr source packetDropReasonIsIncorrectlyReceived(packetDropped)
attr title "packet drop: incorrectly received, count"
scalar spineLeafNetwork.leaf1.eth[3].mac packetDropIncorrectlyReceived:sum(packetBytes) 0
attr interpolationmode none
attr source packetDropReasonIsIncorrectlyReceived(packetDropped)
attr title "packet drop: incorrectly received, sum(packetBytes)"
scalar spineLeafNetwork.leaf1.eth[3].mac packetDropInterfaceDown:count 0
attr interpolationmode none
attr source packetDropReasonIsInterfaceDown(packetDropped)
attr title "packet drop: interface down, count"
scalar spineLeafNetwork.leaf1.eth[3].mac packetDropInterfaceDown:sum(packetBytes) 0
attr interpolationmode none
attr source packetDropReasonIsInterfaceDown(packetDropped)
attr title "packet drop: interface down, sum(packetBytes)"
scalar spineLeafNetwork.leaf1.eth[3].mac packetDropNotAddressedToUs:count 0
attr interpolationmode none
attr source packetDropReasonIsNotAddressedToUs(packetDropped)
attr title "packet drop: not addressed to us, count"
scalar spineLeafNetwork.leaf1.eth[3].mac packetDropNotAddressedToUs:sum(packetBytes) 0
attr interpolationmode none
attr source packetDropReasonIsNotAddressedToUs(packetDropped)
attr title "packet drop: not addressed to us, sum(packetBytes)"
scalar spineLeafNetwork.leaf1.eth[3].mac rxPausePkUnits:count 0
attr interpolationmode none
attr title "pause units received, count"
scalar spineLeafNetwork.leaf1.eth[3].mac rxPausePkUnits:sum 0
attr interpolationmode none
attr title "pause units received, sum"
scalar spineLeafNetwork.leaf1.eth[3].mac txPausePkUnits:count 0
attr interpolationmode none
attr title "pause units sent, count"
scalar spineLeafNetwork.leaf1.eth[3].mac txPausePkUnits:sum 0
attr interpolationmode none
attr title "pause units sent, sum"
scalar spineLeafNetwork.leaf1.eth[3].mac rxPkOk:count 11
attr interpolationmode none
attr source rxPkOk
attr title "packets received OK, count"
scalar spineLeafNetwork.leaf1.eth[3].mac rxPkOk:sum(packetBytes) 1084
attr interpolationmode none
attr source rxPkOk
attr title "packets received OK, sum(packetBytes)"
scalar spineLeafNetwork.leaf1.eth[3].encap pauseSent:count 0
attr title "pause sent, count"
scalar spineLeafNetwork.leaf1.eth[3].encap pauseSent:sum 0
attr title "pause sent, sum"
scalar spineLeafNetwork.leaf1.eth[3].encap decapPk:count 11
attr interpolationmode none
attr source decapPk
attr title "packets decapsulated, count"
scalar spineLeafNetwork.leaf1.eth[3].encap decapPk:sum(packetBytes) 886
attr interpolationmode none
attr source decapPk
attr title "packets decapsulated, sum(packetBytes)"
scalar spineLeafNetwork.leaf1.eth[3].encap encapPk:count 11
attr interpolationmode none
attr source encapPk
attr title "packets encapsulated, count"
scalar spineLeafNetwork.leaf1.eth[3].encap encapPk:sum(packetBytes) 868
attr interpolationmode none
attr source encapPk
attr title "packets encapsulated, sum(packetBytes)"
scalar spineLeafNetwork.leaf1.eth[4].mac.queue packetPopped:count 11
attr interpolationmode none
attr title "packet popped, count"
scalar spineLeafNetwork.leaf1.eth[4].mac.queue packetPopped:sum(packetBytes) 1084
attr interpolationmode none
attr title "packet popped, sum(packetBytes)"
statistic spineLeafNetwork.leaf1.eth[4].mac.queue queueingTime:histogram
field count 11
field mean 0
field stddev 0
field min 0
field max 0
field sum 0
field sqrsum 0
attr interpolationmode none
attr source queueingTime(packetPopped)
attr title "queueing times, histogram"
attr unit s
bin	-inf	0
bin	-0.5	0
bin	-0.48	0
bin	-0.46	0
bin	-0.44	0
bin	-0.42	0
bin	-0.4	0
bin	-0.38	0
bin	-0.36	0
bin	-0.34	0
bin	-0.32	0
bin	-0.3	0
bin	-0.28	0
bin	-0.26	0
bin	-0.24	0
bin	-0.22	0
bin	-0.2	0
bin	-0.18	0
bin	-0.16	0
bin	-0.14	0
bin	-0.12	0
bin	-0.1	0
bin	-0.08	0
bin	-0.06	0
bin	-0.04	0
bin	-0.02	0
bin	0	11
bin	0.02	0
bin	0.04	0
bin	0.06	0
bin	0.08	0
bin	0.1	0
bin	0.12	0
bin	0.14	0
bin	0.16	0
bin	0.18	0
bin	0.2	0
bin	0.22	0
bin	0.24	0
bin	0.26	0
bin	0.28	0
bin	0.3	0
bin	0.32	0
bin	0.34	0
bin	0.36	0
bin	0.38	0
bin	0.4	0
bin	0.42	0
bin	0.44	0
bin	0.46	0
bin	0.48	0
bin	0.5	0
scalar spineLeafNetwork.leaf1.eth[4].mac.queue queueLength:max 1
attr interpolationmode sample-hold
attr source "count(packetPushed) - count(packetPopped) - count(packetRemoved) - count(packetDropped)"
attr title "queue length, max"
scalar spineLeafNetwork.leaf1.eth[4].mac.queue queueLength:timeavg 0
attr interpolationmode sample-hold
attr source "count(packetPushed) - count(packetPopped) - count(packetRemoved) - count(packetDropped)"
attr title "queue length, timeavg"
scalar spineLeafNetwork.leaf1.eth[4].mac.queue packetPushed:count 11
attr interpolationmode none
attr title "packet pushed, count"
scalar spineLeafNetwork.leaf1.eth[4].mac.queue packetPushed:sum(packetBytes) 1084
attr interpolationmode none
attr title "packet pushed, sum(packetBytes)"
scalar spineLeafNetwork.leaf1.eth[4].mac.queue packetDropQueueOverflow:count 0
attr interpolationmode none
attr source packetDropReasonIsQueueOverflow(packetDropped)
attr title "packet drops: queue overflow, count"
scalar spineLeafNetwork.leaf1.eth[4].mac.queue packetDropQueueOverflow:sum(packetBytes) 0
attr interpolationmode none
attr source packetDropReasonIsQueueOverflow(packetDropped)
attr title "packet drops: queue overflow, sum(packetBytes)"
scalar spineLeafNetwork.leaf1.eth[4].mac.queue packetRemoved:count 0
attr interpolationmode none
attr title "packets removed, count"
scalar spineLeafNetwork.leaf1.eth[4].mac.queue packetRemoved:sum(packetBytes) 0
attr interpolationmode none
attr title "packets removed, sum(packetBytes)"
scalar spineLeafNetwork.leaf1.eth[4].mac "simulated time" 10.857945619849
scalar spineLeafNetwork.leaf1.eth[4].mac full-duplex 1
scalar spineLeafNetwork.leaf1.eth[4].mac "frames/sec sent" 1.0130829887277
scalar spineLeafNetwork.leaf1.eth[4].mac "frames/sec rcvd" 1.0130829887277
scalar spineLeafNetwork.leaf1.eth[4].mac "bits/sec sent" 798.67778893155
scalar spineLeafNetwork.leaf1.eth[4].mac "bits/sec rcvd" 798.67778893155
scalar spineLeafNetwork.leaf1.eth[4].mac "rx channel idle (%)" 100
scalar spineLeafNetwork.leaf1.eth[4].mac "rx channel utilization (%)" 0
scalar spineLeafNetwork.leaf1.eth[4].mac txPk:count 11
attr interpolationmode none
attr source packetSentToLower
attr title "packets transmitted, count"
scalar spineLeafNetwork.leaf1.eth[4].mac txPk:sum(packetBytes) 1084
attr interpolationmode none
attr source packetSentToLower
attr title "packets transmitted, sum(packetBytes)"
scalar spineLeafNetwork.leaf1.eth[4].mac packetReceivedFromUpper:count 11
attr interpolationmode none
attr source packetReceivedFromUpper
attr title "packet bytes from higher layer, count"
scalar spineLeafNetwork.leaf1.eth[4].mac packetReceivedFromUpper:sum(packetBytes) 1066
attr interpolationmode none
attr source packetReceivedFromUpper
attr title "packet bytes from higher layer, sum(packetBytes)"
scalar spineLeafNetwork.leaf1.eth[4].mac passedUpPk:count 11
attr interpolationmode none
attr source packetSentToUpper
attr title "packets passed to higher layer, count"
scalar spineLeafNetwork.leaf1.eth[4].mac passedUpPk:sum(packetBytes) 1084
attr interpolationmode none
attr source packetSentToUpper
attr title "packets passed to higher layer, sum(packetBytes)"
scalar spineLeafNetwork.leaf1.eth[4].mac packetDropIncorrectlyReceived:count 0
attr interpolationmode none
attr source packetDropReasonIsIncorrectlyReceived(packetDropped)
attr title "packet drop: incorrectly received, count"
scalar spineLeafNetwork.leaf1.eth[4].mac packetDropIncorrectlyReceived:sum(packetBytes) 0
attr interpolationmode none
attr source packetDropReasonIsIncorrectlyReceived(packetDropped)
attr title "packet drop: incorrectly received, sum(packetBytes)"
scalar spineLeafNetwork.leaf1.eth[4].mac packetDropInterfaceDown:count 0
attr interpolationmode none
attr source packetDropReasonIsInterfaceDown(packetDropped)
attr title "packet drop: interface down, count"
scalar spineLeafNetwork.leaf1.eth[4].mac packetDropInterfaceDown:sum(packetBytes) 0
attr interpolationmode none
attr source packetDropReasonIsInterfaceDown(packetDropped)
attr title "packet drop: interface down, sum(packetBytes)"
scalar spineLeafNetwork.leaf1.eth[4].mac packetDropNotAddressedToUs:count 0
attr interpolationmode none
attr source packetDropReasonIsNotAddressedToUs(packetDropped)
attr title "packet drop: not addressed to us, count"
scalar spineLeafNetwork.leaf1.eth[4].mac packetDropNotAddressedToUs:sum(packetBytes) 0
attr interpolationmode none
attr source packetDropReasonIsNotAddressedToUs(packetDropped)
attr title "packet drop: not addressed to us, sum(packetBytes)"
scalar spineLeafNetwork.leaf1.eth[4].mac rxPausePkUnits:count 0
attr interpolationmode none
attr title "pause units received, count"
scalar spineLeafNetwork.leaf1.eth[4].mac rxPausePkUnits:sum 0
attr interpolationmode none
attr title "pause units received, sum"
scalar spineLeafNetwork.leaf1.eth[4].mac txPausePkUnits:count 0
attr interpolationmode none
attr title "pause units sent, count"
scalar spineLeafNetwork.leaf1.eth[4].mac txPausePkUnits:sum 0
attr interpolationmode none
attr title "pause units sent, sum"
scalar spineLeafNetwork.leaf1.eth[4].mac rxPkOk:count 11
attr interpolationmode none
attr source rxPkOk
attr title "packets received OK, count"
scalar spineLeafNetwork.leaf1.eth[4].mac rxPkOk:sum(packetBytes) 1084
attr interpolationmode none
attr source rxPkOk
attr title "packets received OK, sum(packetBytes)"
scalar spineLeafNetwork.leaf1.eth[4].encap pauseSent:count 0
attr title "pause sent, count"
scalar spineLeafNetwork.leaf1.eth[4].encap pauseSent:sum 0
attr title "pause sent, sum"
scalar spineLeafNetwork.leaf1.eth[4].encap decapPk:count 11
attr interpolationmode none
attr source decapPk
attr title "packets decapsulated, count"
scalar spineLeafNetwork.leaf1.eth[4].encap decapPk:sum(packetBytes) 886
attr interpolationmode none
attr source decapPk
attr title "packets decapsulated, sum(packetBytes)"
scalar spineLeafNetwork.leaf1.eth[4].encap encapPk:count 11
attr interpolationmode none
attr source encapPk
attr title "packets encapsulated, count"
scalar spineLeafNetwork.leaf1.eth[4].encap encapPk:sum(packetBytes) 868
attr interpolationmode none
attr source encapPk
attr title "packets encapsulated, sum(packetBytes)"
scalar spineLeafNetwork.leaf1.eth[5].mac.queue packetPopped:count 11
attr interpolationmode none
attr title "packet popped, count"
scalar spineLeafNetwork.leaf1.eth[5].mac.queue packetPopped:sum(packetBytes) 1084
attr interpolationmode none
attr title "packet popped, sum(packetBytes)"
statistic spineLeafNetwork.leaf1.eth[5].mac.queue queueingTime:histogram
field count 11
field mean 0
field stddev 0
field min 0
field max 0
field sum 0
field sqrsum 0
attr interpolationmode none
attr source queueingTime(packetPopped)
attr title "queueing times, histogram"
attr unit s
bin	-inf	0
bin	-0.5	0
bin	-0.48	0
bin	-0.46	0
bin	-0.44	0
bin	-0.42	0
bin	-0.4	0
bin	-0.38	0
bin	-0.36	0
bin	-0.34	0
bin	-0.32	0
bin	-0.3	0
bin	-0.28	0
bin	-0.26	0
bin	-0.24	0
bin	-0.22	0
bin	-0.2	0
bin	-0.18	0
bin	-0.16	0
bin	-0.14	0
bin	-0.12	0
bin	-0.1	0
bin	-0.08	0
bin	-0.06	0
bin	-0.04	0
bin	-0.02	0
bin	0	11
bin	0.02	0
bin	0.04	0
bin	0.06	0
bin	0.08	0
bin	0.1	0
bin	0.12	0
bin	0.14	0
bin	0.16	0
bin	0.18	0
bin	0.2	0
bin	0.22	0
bin	0.24	0
bin	0.26	0
bin	0.28	0
bin	0.3	0
bin	0.32	0
bin	0.34	0
bin	0.36	0
bin	0.38	0
bin	0.4	0
bin	0.42	0
bin	0.44	0
bin	0.46	0
bin	0.48	0
bin	0.5	0
scalar spineLeafNetwork.leaf1.eth[5].mac.queue queueLength:max 1
attr interpolationmode sample-hold
attr source "count(packetPushed) - count(packetPopped) - count(packetRemoved) - count(packetDropped)"
attr title "queue length, max"
scalar spineLeafNetwork.leaf1.eth[5].mac.queue queueLength:timeavg 0
attr interpolationmode sample-hold
attr source "count(packetPushed) - count(packetPopped) - count(packetRemoved) - count(packetDropped)"
attr title "queue length, timeavg"
scalar spineLeafNetwork.leaf1.eth[5].mac.queue packetPushed:count 11
attr interpolationmode none
attr title "packet pushed, count"
scalar spineLeafNetwork.leaf1.eth[5].mac.queue packetPushed:sum(packetBytes) 1084
attr interpolationmode none
attr title "packet pushed, sum(packetBytes)"
scalar spineLeafNetwork.leaf1.eth[5].mac.queue packetDropQueueOverflow:count 0
attr interpolationmode none
attr source packetDropReasonIsQueueOverflow(packetDropped)
attr title "packet drops: queue overflow, count"
scalar spineLeafNetwork.leaf1.eth[5].mac.queue packetDropQueueOverflow:sum(packetBytes) 0
attr interpolationmode none
attr source packetDropReasonIsQueueOverflow(packetDropped)
attr title "packet drops: queue overflow, sum(packetBytes)"
scalar spineLeafNetwork.leaf1.eth[5].mac.queue packetRemoved:count 0
attr interpolationmode none
attr title "packets removed, count"
scalar spineLeafNetwork.leaf1.eth[5].mac.queue packetRemoved:sum(packetBytes) 0
attr interpolationmode none
attr title "packets removed, sum(packetBytes)"
scalar spineLeafNetwork.leaf1.eth[5].mac "simulated time" 10.857945619849
scalar spineLeafNetwork.leaf1.eth[5].mac full-duplex 1
scalar spineLeafNetwork.leaf1.eth[5].mac "frames/sec sent" 1.0130829887277
scalar spineLeafNetwork.leaf1.eth[5].mac "frames/sec rcvd" 1.0130829887277
scalar spineLeafNetwork.leaf1.eth[5].mac "bits/sec sent" 798.67778893155
scalar spineLeafNetwork.leaf1.eth[5].mac "bits/sec rcvd" 798.67778893155
scalar spineLeafNetwork.leaf1.eth[5].mac "rx channel idle (%)" 100
scalar spineLeafNetwork.leaf1.eth[5].mac "rx channel utilization (%)" 0
scalar spineLeafNetwork.leaf1.eth[5].mac txPk:count 11
attr interpolationmode none
attr source packetSentToLower
attr title "packets transmitted, count"
scalar spineLeafNetwork.leaf1.eth[5].mac txPk:sum(packetBytes) 1084
attr interpolationmode none
attr source packetSentToLower
attr title "packets transmitted, sum(packetBytes)"
scalar spineLeafNetwork.leaf1.eth[5].mac packetReceivedFromUpper:count 11
attr interpolationmode none
attr source packetReceivedFromUpper
attr title "packet bytes from higher layer, count"
scalar spineLeafNetwork.leaf1.eth[5].mac packetReceivedFromUpper:sum(packetBytes) 1066
attr interpolationmode none
attr source packetReceivedFromUpper
attr title "packet bytes from higher layer, sum(packetBytes)"
scalar spineLeafNetwork.leaf1.eth[5].mac passedUpPk:count 11
attr interpolationmode none
attr source packetSentToUpper
attr title "packets passed to higher layer, count"
scalar spineLeafNetwork.leaf1.eth[5].mac passedUpPk:sum(packetBytes) 1084
attr interpolationmode none
attr source packetSentToUpper
attr title "packets passed to higher layer, sum(packetBytes)"
scalar spineLeafNetwork.leaf1.eth[5].mac packetDropIncorrectlyReceived:count 0
attr interpolationmode none
attr source packetDropReasonIsIncorrectlyReceived(packetDropped)
attr title "packet drop: incorrectly received, count"
scalar spineLeafNetwork.leaf1.eth[5].mac packetDropIncorrectlyReceived:sum(packetBytes) 0
attr interpolationmode none
attr source packetDropReasonIsIncorrectlyReceived(packetDropped)
attr title "packet drop: incorrectly received, sum(packetBytes)"
scalar spineLeafNetwork.leaf1.eth[5].mac packetDropInterfaceDown:count 0
attr interpolationmode none
attr source packetDropReasonIsInterfaceDown(packetDropped)
attr title "packet drop: interface down, count"
scalar spineLeafNetwork.leaf1.eth[5].mac packetDropInterfaceDown:sum(packetBytes) 0
attr interpolationmode none
attr source packetDropReasonIsInterfaceDown(packetDropped)
attr title "packet drop: interface down, sum(packetBytes)"
scalar spineLeafNetwork.leaf1.eth[5].mac packetDropNotAddressedToUs:count 0
attr interpolationmode none
attr source packetDropReasonIsNotAddressedToUs(packetDropped)
attr title "packet drop: not addressed to us, count"
scalar spineLeafNetwork.leaf1.eth[5].mac packetDropNotAddressedToUs:sum(packetBytes) 0
attr interpolationmode none
attr source packetDropReasonIsNotAddressedToUs(packetDropped)
attr title "packet drop: not addressed to us, sum(packetBytes)"
scalar spineLeafNetwork.leaf1.eth[5].mac rxPausePkUnits:count 0
attr interpolationmode none
attr title "pause units received, count"
scalar spineLeafNetwork.leaf1.eth[5].mac rxPausePkUnits:sum 0
attr interpolationmode none
attr title "pause units received, sum"
scalar spineLeafNetwork.leaf1.eth[5].mac txPausePkUnits:count 0
attr interpolationmode none
attr title "pause units sent, count"
scalar spineLeafNetwork.leaf1.eth[5].mac txPausePkUnits:sum 0
attr interpolationmode none
attr title "pause units sent, sum"
scalar spineLeafNetwork.leaf1.eth[5].mac rxPkOk:count 11
attr interpolationmode none
attr source rxPkOk
attr title "packets received OK, count"
scalar spineLeafNetwork.leaf1.eth[5].mac rxPkOk:sum(packetBytes) 1084
attr interpolationmode none
attr source rxPkOk
attr title "packets received OK, sum(packetBytes)"
scalar spineLeafNetwork.leaf1.eth[5].encap pauseSent:count 0
attr title "pause sent, count"
scalar spineLeafNetwork.leaf1.eth[5].encap pauseSent:sum 0
attr title "pause sent, sum"
scalar spineLeafNetwork.leaf1.eth[5].encap decapPk:count 11
attr interpolationmode none
attr source decapPk
attr title "packets decapsulated, count"
scalar spineLeafNetwork.leaf1.eth[5].encap decapPk:sum(packetBytes) 886
attr interpolationmode none
attr source decapPk
attr title "packets decapsulated, sum(packetBytes)"
scalar spineLeafNetwork.leaf1.eth[5].encap encapPk:count 11
attr interpolationmode none
attr source encapPk
attr title "packets encapsulated, count"
scalar spineLeafNetwork.leaf1.eth[5].encap encapPk:sum(packetBytes) 868
attr interpolationmode none
attr source encapPk
attr title "packets encapsulated, sum(packetBytes)"
scalar spineLeafNetwork.leaf1.ipv4.ip packetDropAddressResolutionFailed:count 0
attr interpolationmode none
attr source packetDropReasonIsAddressResolutionFailed(packetDropped)
attr title "packet drop: address resolution failed, count"
scalar spineLeafNetwork.leaf1.ipv4.ip packetDropAddressResolutionFailed:sum(packetBytes) 0
attr interpolationmode none
attr source packetDropReasonIsAddressResolutionFailed(packetDropped)
attr title "packet drop: address resolution failed, sum(packetBytes)"
scalar spineLeafNetwork.leaf1.ipv4.ip packetDropHopLimitReached:count 0
attr interpolationmode none
attr source packetDropReasonIsHopLimitReached(packetDropped)
attr title "packet drop: hop limit reached, count"
scalar spineLeafNetwork.leaf1.ipv4.ip packetDropHopLimitReached:sum(packetBytes) 0
attr interpolationmode none
attr source packetDropReasonIsHopLimitReached(packetDropped)
attr title "packet drop: hop limit reached, sum(packetBytes)"
scalar spineLeafNetwork.leaf1.ipv4.ip packetDropForwardingDisabled:count 0
attr interpolationmode none
attr source packetDropReasonIsForwardingDisabled(packetDropped)
attr title "packet drop: forwarding disabled, count"
scalar spineLeafNetwork.leaf1.ipv4.ip packetDropForwardingDisabled:sum(packetBytes) 0
attr interpolationmode none
attr source packetDropReasonIsForwardingDisabled(packetDropped)
attr title "packet drop: forwarding disabled, sum(packetBytes)"
scalar spineLeafNetwork.leaf1.ipv4.ip packetDropNoInterfaceFound:count 0
attr interpolationmode none
attr source packetDropReasonIsNoInterfaceFound(packetDropped)
attr title "packet drop: no interface found, count"
scalar spineLeafNetwork.leaf1.ipv4.ip packetDropNoInterfaceFound:sum(packetBytes) 0
attr interpolationmode none
attr source packetDropReasonIsNoInterfaceFound(packetDropped)
attr title "packet drop: no interface found, sum(packetBytes)"
scalar spineLeafNetwork.leaf1.ipv4.ip packetDropNoRouteFound:count 0
attr interpolationmode none
attr source packetDropReasonIsNoRouteFound(packetDropped)
attr title "packet drop: no route found, count"
scalar spineLeafNetwork.leaf1.ipv4.ip packetDropNoRouteFound:sum(packetBytes) 0
attr interpolationmode none
attr source packetDropReasonIsNoRouteFound(packetDropped)
attr title "packet drop: no route found, sum(packetBytes)"
scalar spineLeafNetwork.leaf1.ipv4.ip packetDropUndefined:count 0
attr interpolationmode none
attr source packetDropReasonIsUndefined(packetDropped)
attr title "packet drop: undefined, count"
scalar spineLeafNetwork.leaf1.ipv4.ip packetDropUndefined:sum(packetBytes) 0
attr interpolationmode none
attr source packetDropReasonIsUndefined(packetDropped)
attr title "packet drop: undefined, sum(packetBytes)"
scalar spineLeafNetwork.leaf1.ipv4.arp arpReplySent:count 4
attr source arpReplySent
attr title "ARP replies sent, count"
scalar spineLeafNetwork.leaf1.ipv4.arp arpReplySent:sum(packetBytes) 112
attr source arpReplySent
attr title "ARP replies sent, sum(packetBytes)"
scalar spineLeafNetwork.leaf1.ipv4.arp arpRequestSent:count 3
attr source arpRequestSent
attr title "ARP request sent, count"
scalar spineLeafNetwork.leaf1.ipv4.arp arpRequestSent:sum(packetBytes) 84
attr source arpRequestSent
attr title "ARP request sent, sum(packetBytes)"
scalar spineLeafNetwork.leaf1.ipv4.arp arpResolutionFailed:count 0
attr title "ARP failed resolutions, count"
scalar spineLeafNetwork.leaf1.ipv4.arp arpResolutionCompleted:count 7
attr title "ARP completed resolutions, count"
scalar spineLeafNetwork.leaf1.ipv4.arp arpResolutionInitiated:count 3
attr title "ARP initiated resolutions, count"
scalar spineLeafNetwork.leaf4.lo[0].lo rcvdPkFromHl:count 0
attr interpolationmode none
attr source packetReceivedFromUpper
attr title "packets received from higher layer, count"
scalar spineLeafNetwork.leaf4.lo[0].lo rcvdPkFromHl:sum(packetBytes) 0
attr interpolationmode none
attr source packetReceivedFromUpper
attr title "packets received from higher layer, sum(packetBytes)"
scalar spineLeafNetwork.leaf4.lo[0].lo passedUpPk:count 0
attr interpolationmode none
attr source packetSentToUpper
attr title "packets passed to higher layer, count"
scalar spineLeafNetwork.leaf4.lo[0].lo passedUpPk:sum(packetBytes) 0
attr interpolationmode none
attr source packetSentToUpper
attr title "packets passed to higher layer, sum(packetBytes)"
scalar spineLeafNetwork.leaf4.eth[0].mac.queue packetPopped:count 40
attr interpolationmode none
attr title "packet popped, count"
scalar spineLeafNetwork.leaf4.eth[0].mac.queue packetPopped:sum(packetBytes) 3700
attr interpolationmode none
attr title "packet popped, sum(packetBytes)"
statistic spineLeafNetwork.leaf4.eth[0].mac.queue queueingTime:histogram
field count 40
field mean 0
field stddev 0
field min 0
field max 0
field sum 0
field sqrsum 0
attr interpolationmode none
attr source queueingTime(packetPopped)
attr title "queueing times, histogram"
attr unit s
bin	-inf	0
bin	-0.5	0
bin	-0.48	0
bin	-0.46	0
bin	-0.44	0
bin	-0.42	0
bin	-0.4	0
bin	-0.38	0
bin	-0.36	0
bin	-0.34	0
bin	-0.32	0
bin	-0.3	0
bin	-0.28	0
bin	-0.26	0
bin	-0.24	0
bin	-0.22	0
bin	-0.2	0
bin	-0.18	0
bin	-0.16	0
bin	-0.14	0
bin	-0.12	0
bin	-0.1	0
bin	-0.08	0
bin	-0.06	0
bin	-0.04	0
bin	-0.02	0
bin	0	40
bin	0.02	0
bin	0.04	0
bin	0.06	0
bin	0.08	0
bin	0.1	0
bin	0.12	0
bin	0.14	0
bin	0.16	0
bin	0.18	0
bin	0.2	0
bin	0.22	0
bin	0.24	0
bin	0.26	0
bin	0.28	0
bin	0.3	0
bin	0.32	0
bin	0.34	0
bin	0.36	0
bin	0.38	0
bin	0.4	0
bin	0.42	0
bin	0.44	0
bin	0.46	0
bin	0.48	0
bin	0.5	0
scalar spineLeafNetwork.leaf4.eth[0].mac.queue queueLength:max 1
attr interpolationmode sample-hold
attr source "count(packetPushed) - count(packetPopped) - count(packetRemoved) - count(packetDropped)"
attr title "queue length, max"
scalar spineLeafNetwork.leaf4.eth[0].mac.queue queueLength:timeavg 0
attr interpolationmode sample-hold
attr source "count(packetPushed) - count(packetPopped) - count(packetRemoved) - count(packetDropped)"
attr title "queue length, timeavg"
scalar spineLeafNetwork.leaf4.eth[0].mac.queue packetPushed:count 40
attr interpolationmode none
attr title "packet pushed, count"
scalar spineLeafNetwork.leaf4.eth[0].mac.queue packetPushed:sum(packetBytes) 3700
attr interpolationmode none
attr title "packet pushed, sum(packetBytes)"
scalar spineLeafNetwork.leaf4.eth[0].mac.queue packetDropQueueOverflow:count 0
attr interpolationmode none
attr source packetDropReasonIsQueueOverflow(packetDropped)
attr title "packet drops: queue overflow, count"
scalar spineLeafNetwork.leaf4.eth[0].mac.queue packetDropQueueOverflow:sum(packetBytes) 0
attr interpolationmode none
attr source packetDropReasonIsQueueOverflow(packetDropped)
attr title "packet drops: queue overflow, sum(packetBytes)"
scalar spineLeafNetwork.leaf4.eth[0].mac.queue packetRemoved:count 0
attr interpolationmode none
attr title "packets removed, count"
scalar spineLeafNetwork.leaf4.eth[0].mac.queue packetRemoved:sum(packetBytes) 0
attr interpolationmode none
attr title "packets removed, sum(packetBytes)"
scalar spineLeafNetwork.leaf4.eth[0].mac "simulated time" 10.857945619849
scalar spineLeafNetwork.leaf4.eth[0].mac full-duplex 1
scalar spineLeafNetwork.leaf4.eth[0].mac "frames/sec sent" 3.6839381408282
scalar spineLeafNetwork.leaf4.eth[0].mac "frames/sec rcvd" 3.4076427802661
scalar spineLeafNetwork.leaf4.eth[0].mac "bits/sec sent" 2726.1142242129
scalar spineLeafNetwork.leaf4.eth[0].mac "bits/sec rcvd" 2500.6572099942
scalar spineLeafNetwork.leaf4.eth[0].mac "rx channel idle (%)" 100
scalar spineLeafNetwork.leaf4.eth[0].mac "rx channel utilization (%)" 0
scalar spineLeafNetwork.leaf4.eth[0].mac txPk:count 40
attr interpolationmode none
attr source packetSentToLower
attr title "packets transmitted, count"
scalar spineLeafNetwork.leaf4.eth[0].mac txPk:sum(packetBytes) 3700
attr interpolationmode none
attr source packetSentToLower
attr title "packets transmitted, sum(packetBytes)"
scalar spineLeafNetwork.leaf4.eth[0].mac packetReceivedFromUpper:count 40
attr interpolationmode none
attr source packetReceivedFromUpper
attr title "packet bytes from higher layer, count"
scalar spineLeafNetwork.leaf4.eth[0].mac packetReceivedFromUpper:sum(packetBytes) 3520
attr interpolationmode none
attr source packetReceivedFromUpper
attr title "packet bytes from higher layer, sum(packetBytes)"
scalar spineLeafNetwork.leaf4.eth[0].mac passedUpPk:count 37
attr interpolationmode none
attr source packetSentToUpper
attr title "packets passed to higher layer, count"
scalar spineLeafNetwork.leaf4.eth[0].mac passedUpPk:sum(packetBytes) 3394
attr interpolationmode none
attr source packetSentToUpper
attr title "packets passed to higher layer, sum(packetBytes)"
scalar spineLeafNetwork.leaf4.eth[0].mac packetDropIncorrectlyReceived:count 0
attr interpolationmode none
attr source packetDropReasonIsIncorrectlyReceived(packetDropped)
attr title "packet drop: incorrectly received, count"
scalar spineLeafNetwork.leaf4.eth[0].mac packetDropIncorrectlyReceived:sum(packetBytes) 0
attr interpolationmode none
attr source packetDropReasonIsIncorrectlyReceived(packetDropped)
attr title "packet drop: incorrectly received, sum(packetBytes)"
scalar spineLeafNetwork.leaf4.eth[0].mac packetDropInterfaceDown:count 0
attr interpolationmode none
attr source packetDropReasonIsInterfaceDown(packetDropped)
attr title "packet drop: interface down, count"
scalar spineLeafNetwork.leaf4.eth[0].mac packetDropInterfaceDown:sum(packetBytes) 0
attr interpolationmode none
attr source packetDropReasonIsInterfaceDown(packetDropped)
attr title "packet drop: interface down, sum(packetBytes)"
scalar spineLeafNetwork.leaf4.eth[0].mac packetDropNotAddressedToUs:count 0
attr interpolationmode none
attr source packetDropReasonIsNotAddressedToUs(packetDropped)
attr title "packet drop: not addressed to us, count"
scalar spineLeafNetwork.leaf4.eth[0].mac packetDropNotAddressedToUs:sum(packetBytes) 0
attr interpolationmode none
attr source packetDropReasonIsNotAddressedToUs(packetDropped)
attr title "packet drop: not addressed to us, sum(packetBytes)"
scalar spineLeafNetwork.leaf4.eth[0].mac rxPausePkUnits:count 0
attr interpolationmode none
attr title "pause units received, count"
scalar spineLeafNetwork.leaf4.eth[0].mac rxPausePkUnits:sum 0
attr interpolationmode none
attr title "pause units received, sum"
scalar spineLeafNetwork.leaf4.eth[0].mac txPausePkUnits:count 0
attr interpolationmode none
attr title "pause units sent, count"
scalar spineLeafNetwork.leaf4.eth[0].mac txPausePkUnits:sum 0
attr interpolationmode none
attr title "pause units sent, sum"
scalar spineLeafNetwork.leaf4.eth[0].mac rxPkOk:count 37
attr interpolationmode none
attr source rxPkOk
attr title "packets received OK, count"
scalar spineLeafNetwork.leaf4.eth[0].mac rxPkOk:sum(packetBytes) 3394
attr interpolationmode none
attr source rxPkOk
attr title "packets received OK, sum(packetBytes)"
scalar spineLeafNetwork.leaf4.eth[0].encap pauseSent:count 0
attr title "pause sent, count"
scalar spineLeafNetwork.leaf4.eth[0].encap pauseSent:sum 0
attr title "pause sent, sum"
scalar spineLeafNetwork.leaf4.eth[0].encap decapPk:count 37
attr interpolationmode none
attr source decapPk
attr title "packets decapsulated, count"
scalar spineLeafNetwork.leaf4.eth[0].encap decapPk:sum(packetBytes) 2728
attr interpolationmode none
attr source decapPk
attr title "packets decapsulated, sum(packetBytes)"
scalar spineLeafNetwork.leaf4.eth[0].encap encapPk:count 40
attr interpolationmode none
attr source encapPk
attr title "packets encapsulated, count"
scalar spineLeafNetwork.leaf4.eth[0].encap encapPk:sum(packetBytes) 2800
attr interpolationmode none
attr source encapPk
attr title "packets encapsulated, sum(packetBytes)"
scalar spineLeafNetwork.leaf4.eth[1].mac.queue packetPopped:count 37
attr interpolationmode none
attr title "packet popped, count"
scalar spineLeafNetwork.leaf4.eth[1].mac.queue packetPopped:sum(packetBytes) 3432
attr interpolationmode none
attr title "packet popped, sum(packetBytes)"
statistic spineLeafNetwork.leaf4.eth[1].mac.queue queueingTime:histogram
field count 37
field mean 0
field stddev 0
field min 0
field max 0
field sum 0
field sqrsum 0
attr interpolationmode none
attr source queueingTime(packetPopped)
attr title "queueing times, histogram"
attr unit s
bin	-inf	0
bin	-0.5	0
bin	-0.48	0
bin	-0.46	0
bin	-0.44	0
bin	-0.42	0
bin	-0.4	0
bin	-0.38	0
bin	-0.36	0
bin	-0.34	0
bin	-0.32	0
bin	-0.3	0
bin	-0.28	0
bin	-0.26	0
bin	-0.24	0
bin	-0.22	0
bin	-0.2	0
bin	-0.18	0
bin	-0.16	0
bin	-0.14	0
bin	-0.12	0
bin	-0.1	0
bin	-0.08	0
bin	-0.06	0
bin	-0.04	0
bin	-0.02	0
bin	0	37
bin	0.02	0
bin	0.04	0
bin	0.06	0
bin	0.08	0
bin	0.1	0
bin	0.12	0
bin	0.14	0
bin	0.16	0
bin	0.18	0
bin	0.2	0
bin	0.22	0
bin	0.24	0
bin	0.26	0
bin	0.28	0
bin	0.3	0
bin	0.32	0
bin	0.34	0
bin	0.36	0
bin	0.38	0
bin	0.4	0
bin	0.42	0
bin	0.44	0
bin	0.46	0
bin	0.48	0
bin	0.5	0
scalar spineLeafNetwork.leaf4.eth[1].mac.queue queueLength:max 1
attr interpolationmode sample-hold
attr source "count(packetPushed) - count(packetPopped) - count(packetRemoved) - count(packetDropped)"
attr title "queue length, max"
scalar spineLeafNetwork.leaf4.eth[1].mac.queue queueLength:timeavg 0
attr interpolationmode sample-hold
attr source "count(packetPushed) - count(packetPopped) - count(packetRemoved) - count(packetDropped)"
attr title "queue length, timeavg"
scalar spineLeafNetwork.leaf4.eth[1].mac.queue packetPushed:count 37
attr interpolationmode none
attr title "packet pushed, count"
scalar spineLeafNetwork.leaf4.eth[1].mac.queue packetPushed:sum(packetBytes) 3432
attr interpolationmode none
attr title "packet pushed, sum(packetBytes)"
scalar spineLeafNetwork.leaf4.eth[1].mac.queue packetDropQueueOverflow:count 0
attr interpolationmode none
attr source packetDropReasonIsQueueOverflow(packetDropped)
attr title "packet drops: queue overflow, count"
scalar spineLeafNetwork.leaf4.eth[1].mac.queue packetDropQueueOverflow:sum(packetBytes) 0
attr interpolationmode none
attr source packetDropReasonIsQueueOverflow(packetDropped)
attr title "packet drops: queue overflow, sum(packetBytes)"
scalar spineLeafNetwork.leaf4.eth[1].mac.queue packetRemoved:count 0
attr interpolationmode none
attr title "packets removed, count"
scalar spineLeafNetwork.leaf4.eth[1].mac.queue packetRemoved:sum(packetBytes) 0
attr interpolationmode none
attr title "packets removed, sum(packetBytes)"
scalar spineLeafNetwork.leaf4.eth[1].mac "simulated time" 10.857945619849
scalar spineLeafNetwork.leaf4.eth[1].mac full-duplex 1
scalar spineLeafNetwork.leaf4.eth[1].mac "frames/sec sent" 3.4076427802661
scalar spineLeafNetwork.leaf4.eth[1].mac "frames/sec rcvd" 3.4076427802661
scalar spineLeafNetwork.leaf4.eth[1].mac "bits/sec sent" 2528.6551398645
scalar spineLeafNetwork.leaf4.eth[1].mac "bits/sec rcvd" 2528.6551398645
scalar spineLeafNetwork.leaf4.eth[1].mac "rx channel idle (%)" 100
scalar spineLeafNetwork.leaf4.eth[1].mac "rx channel utilization (%)" 0
scalar spineLeafNetwork.leaf4.eth[1].mac txPk:count 37
attr interpolationmode none
attr source packetSentToLower
attr title "packets transmitted, count"
scalar spineLeafNetwork.leaf4.eth[1].mac txPk:sum(packetBytes) 3432
attr interpolationmode none
attr source packetSentToLower
attr title "packets transmitted, sum(packetBytes)"
scalar spineLeafNetwork.leaf4.eth[1].mac packetReceivedFromUpper:count 37
attr interpolationmode none
attr source packetReceivedFromUpper
attr title "packet bytes from higher layer, count"
scalar spineLeafNetwork.leaf4.eth[1].mac packetReceivedFromUpper:sum(packetBytes) 3270
attr interpolationmode none
attr source packetReceivedFromUpper
attr title "packet bytes from higher layer, sum(packetBytes)"
scalar spineLeafNetwork.leaf4.eth[1].mac passedUpPk:count 37
attr interpolationmode none
attr source packetSentToUpper
attr title "packets passed to higher layer, count"
scalar spineLeafNetwork.leaf4.eth[1].mac passedUpPk:sum(packetBytes) 3432
attr interpolationmode none
attr source packetSentToUpper
attr title "packets passed to higher layer, sum(packetBytes)"
scalar spineLeafNetwork.leaf4.eth[1].mac packetDropIncorrectlyReceived:count 0
attr interpolationmode none
attr source packetDropReasonIsIncorrectlyReceived(packetDropped)
attr title "packet drop: incorrectly received, count"
scalar spineLeafNetwork.leaf4.eth[1].mac packetDropIncorrectlyReceived:sum(packetBytes) 0
attr interpolationmode none
attr source packetDropReasonIsIncorrectlyReceived(packetDropped)
attr title "packet drop: incorrectly received, sum(packetBytes)"
scalar spineLeafNetwork.leaf4.eth[1].mac packetDropInterfaceDown:count 0
attr interpolationmode none
attr source packetDropReasonIsInterfaceDown(packetDropped)
attr title "packet drop: interface down, count"
scalar spineLeafNetwork.leaf4.eth[1].mac packetDropInterfaceDown:sum(packetBytes) 0
attr interpolationmode none
attr source packetDropReasonIsInterfaceDown(packetDropped)
attr title "packet drop: interface down, sum(packetBytes)"
scalar spineLeafNetwork.leaf4.eth[1].mac packetDropNotAddressedToUs:count 0
attr interpolationmode none
attr source packetDropReasonIsNotAddressedToUs(packetDropped)
attr title "packet drop: not addressed to us, count"
scalar spineLeafNetwork.leaf4.eth[1].mac packetDropNotAddressedToUs:sum(packetBytes) 0
attr interpolationmode none
attr source packetDropReasonIsNotAddressedToUs(packetDropped)
attr title "packet drop: not addressed to us, sum(packetBytes)"
scalar spineLeafNetwork.leaf4.eth[1].mac rxPausePkUnits:count 0
attr interpolationmode none
attr title "pause units received, count"
scalar spineLeafNetwork.leaf4.eth[1].mac rxPausePkUnits:sum 0
attr interpolationmode none
attr title "pause units received, sum"
scalar spineLeafNetwork.leaf4.eth[1].mac txPausePkUnits:count 0
attr interpolationmode none
attr title "pause units sent, count"
scalar spineLeafNetwork.leaf4.eth[1].mac txPausePkUnits:sum 0
attr interpolationmode none
attr title "pause units sent, sum"
scalar spineLeafNetwork.leaf4.eth[1].mac rxPkOk:count 37
attr interpolationmode none
attr source rxPkOk
attr title "packets received OK, count"
scalar spineLeafNetwork.leaf4.eth[1].mac rxPkOk:sum(packetBytes) 3432
attr interpolationmode none
attr source rxPkOk
attr title "packets received OK, sum(packetBytes)"
scalar spineLeafNetwork.leaf4.eth[1].encap pauseSent:count 0
attr title "pause sent, count"
scalar spineLeafNetwork.leaf4.eth[1].encap pauseSent:sum 0
attr title "pause sent, sum"
scalar spineLeafNetwork.leaf4.eth[1].encap decapPk:count 37
attr interpolationmode none
attr source decapPk
attr title "packets decapsulated, count"
scalar spineLeafNetwork.leaf4.eth[1].encap decapPk:sum(packetBytes) 2766
attr interpolationmode none
attr source decapPk
attr title "packets decapsulated, sum(packetBytes)"
scalar spineLeafNetwork.leaf4.eth[1].encap encapPk:count 37
attr interpolationmode none
attr source encapPk
attr title "packets encapsulated, count"
scalar spineLeafNetwork.leaf4.eth[1].encap encapPk:sum(packetBytes) 2604
attr interpolationmode none
attr source encapPk
attr title "packets encapsulated, sum(packetBytes)"
scalar spineLeafNetwork.leaf4.eth[2].mac.queue packetPopped:count 42
attr interpolationmode none
attr title "packet popped, count"
scalar spineLeafNetwork.leaf4.eth[2].mac.queue packetPopped:sum(packetBytes) 3904
attr interpolationmode none
attr title "packet popped, sum(packetBytes)"
statistic spineLeafNetwork.leaf4.eth[2].mac.queue queueingTime:histogram
field count 42
field mean 0
field stddev 0
field min 0
field max 0
field sum 0
field sqrsum 0
attr interpolationmode none
attr source queueingTime(packetPopped)
attr title "queueing times, histogram"
attr unit s
bin	-inf	0
bin	-0.5	0
bin	-0.48	0
bin	-0.46	0
bin	-0.44	0
bin	-0.42	0
bin	-0.4	0
bin	-0.38	0
bin	-0.36	0
bin	-0.34	0
bin	-0.32	0
bin	-0.3	0
bin	-0.28	0
bin	-0.26	0
bin	-0.24	0
bin	-0.22	0
bin	-0.2	0
bin	-0.18	0
bin	-0.16	0
bin	-0.14	0
bin	-0.12	0
bin	-0.1	0
bin	-0.08	0
bin	-0.06	0
bin	-0.04	0
bin	-0.02	0
bin	0	42
bin	0.02	0
bin	0.04	0
bin	0.06	0
bin	0.08	0
bin	0.1	0
bin	0.12	0
bin	0.14	0
bin	0.16	0
bin	0.18	0
bin	0.2	0
bin	0.22	0
bin	0.24	0
bin	0.26	0
bin	0.28	0
bin	0.3	0
bin	0.32	0
bin	0.34	0
bin	0.36	0
bin	0.38	0
bin	0.4	0
bin	0.42	0
bin	0.44	0
bin	0.46	0
bin	0.48	0
bin	0.5	0
scalar spineLeafNetwork.leaf4.eth[2].mac.queue queueLength:max 1
attr interpolationmode sample-hold
attr source "count(packetPushed) - count(packetPopped) - count(packetRemoved) - count(packetDropped)"
attr title "queue length, max"
scalar spineLeafNetwork.leaf4.eth[2].mac.queue queueLength:timeavg 0
attr interpolationmode sample-hold
attr source "count(packetPushed) - count(packetPopped) - count(packetRemoved) - count(packetDropped)"
attr title "queue length, timeavg"
scalar spineLeafNetwork.leaf4.eth[2].mac.queue packetPushed:count 42
attr interpolationmode none
attr title "packet pushed, count"
scalar spineLeafNetwork.leaf4.eth[2].mac.queue packetPushed:sum(packetBytes) 3904
attr interpolationmode none
attr title "packet pushed, sum(packetBytes)"
scalar spineLeafNetwork.leaf4.eth[2].mac.queue packetDropQueueOverflow:count 0
attr interpolationmode none
attr source packetDropReasonIsQueueOverflow(packetDropped)
attr title "packet drops: queue overflow, count"
scalar spineLeafNetwork.leaf4.eth[2].mac.queue packetDropQueueOverflow:sum(packetBytes) 0
attr interpolationmode none
attr source packetDropReasonIsQueueOverflow(packetDropped)
attr title "packet drops: queue overflow, sum(packetBytes)"
scalar spineLeafNetwork.leaf4.eth[2].mac.queue packetRemoved:count 0
attr interpolationmode none
attr title "packets removed, count"
scalar spineLeafNetwork.leaf4.eth[2].mac.queue packetRemoved:sum(packetBytes) 0
attr interpolationmode none
attr title "packets removed, sum(packetBytes)"
scalar spineLeafNetwork.leaf4.eth[2].mac "simulated time" 10.857945619849
scalar spineLeafNetwork.leaf4.eth[2].mac full-duplex 1
scalar spineLeafNetwork.leaf4.eth[2].mac "frames/sec sent" 3.8681350478696
scalar spineLeafNetwork.leaf4.eth[2].mac "frames/sec rcvd" 4.1444304084317
scalar spineLeafNetwork.leaf4.eth[2].mac "bits/sec sent" 2876.4189003586
scalar spineLeafNetwork.leaf4.eth[2].mac "bits/sec rcvd" 3101.8759145773
scalar spineLeafNetwork.leaf4.eth[2].mac "rx channel idle (%)" 100
scalar spineLeafNetwork.leaf4.eth[2].mac "rx channel utilization (%)" 0
scalar spineLeafNetwork.leaf4.eth[2].mac txPk:count 42
attr interpolationmode none
attr source packetSentToLower
attr title "packets transmitted, count"
scalar spineLeafNetwork.leaf4.eth[2].mac txPk:sum(packetBytes) 3904
attr interpolationmode none
attr source packetSentToLower
attr title "packets transmitted, sum(packetBytes)"
scalar spineLeafNetwork.leaf4.eth[2].mac packetReceivedFromUpper:count 42
attr interpolationmode none
attr source packetReceivedFromUpper
attr title "packet bytes from higher layer, count"
scalar spineLeafNetwork.leaf4.eth[2].mac packetReceivedFromUpper:sum(packetBytes) 3724
attr interpolationmode none
attr source packetReceivedFromUpper
attr title "packet bytes from higher layer, sum(packetBytes)"
scalar spineLeafNetwork.leaf4.eth[2].mac passedUpPk:count 45
attr interpolationmode none
attr source packetSentToUpper
attr title "packets passed to higher layer, count"
scalar spineLeafNetwork.leaf4.eth[2].mac passedUpPk:sum(packetBytes) 4210
attr interpolationmode none
attr source packetSentToUpper
attr title "packets passed to higher layer, sum(packetBytes)"
scalar spineLeafNetwork.leaf4.eth[2].mac packetDropIncorrectlyReceived:count 0
attr interpolationmode none
attr source packetDropReasonIsIncorrectlyReceived(packetDropped)
attr title "packet drop: incorrectly received, count"
scalar spineLeafNetwork.leaf4.eth[2].mac packetDropIncorrectlyReceived:sum(packetBytes) 0
attr interpolationmode none
attr source packetDropReasonIsIncorrectlyReceived(packetDropped)
attr title "packet drop: incorrectly received, sum(packetBytes)"
scalar spineLeafNetwork.leaf4.eth[2].mac packetDropInterfaceDown:count 0
attr interpolationmode none
attr source packetDropReasonIsInterfaceDown(packetDropped)
attr title "packet drop: interface down, count"
scalar spineLeafNetwork.leaf4.eth[2].mac packetDropInterfaceDown:sum(packetBytes) 0
attr interpolationmode none
attr source packetDropReasonIsInterfaceDown(packetDropped)
attr title "packet drop: interface down, sum(packetBytes)"
scalar spineLeafNetwork.leaf4.eth[2].mac packetDropNotAddressedToUs:count 0
attr interpolationmode none
attr source packetDropReasonIsNotAddressedToUs(packetDropped)
attr title "packet drop: not addressed to us, count"
scalar spineLeafNetwork.leaf4.eth[2].mac packetDropNotAddressedToUs:sum(packetBytes) 0
attr interpolationmode none
attr source packetDropReasonIsNotAddressedToUs(packetDropped)
attr title "packet drop: not addressed to us, sum(packetBytes)"
scalar spineLeafNetwork.leaf4.eth[2].mac rxPausePkUnits:count 0
attr interpolationmode none
attr title "pause units received, count"
scalar spineLeafNetwork.leaf4.eth[2].mac rxPausePkUnits:sum 0
attr interpolationmode none
attr title "pause units received, sum"
scalar spineLeafNetwork.leaf4.eth[2].mac txPausePkUnits:count 0
attr interpolationmode none
attr title "pause units sent, count"
scalar spineLeafNetwork.leaf4.eth[2].mac txPausePkUnits:sum 0
attr interpolationmode none
attr title "pause units sent, sum"
scalar spineLeafNetwork.leaf4.eth[2].mac rxPkOk:count 45
attr interpolationmode none
attr source rxPkOk
attr title "packets received OK, count"
scalar spineLeafNetwork.leaf4.eth[2].mac rxPkOk:sum(packetBytes) 4210
attr interpolationmode none
attr source rxPkOk
attr title "packets received OK, sum(packetBytes)"
scalar spineLeafNetwork.leaf4.eth[2].encap pauseSent:count 0
attr title "pause sent, count"
scalar spineLeafNetwork.leaf4.eth[2].encap pauseSent:sum 0
attr title "pause sent, sum"
scalar spineLeafNetwork.leaf4.eth[2].encap decapPk:count 45
attr interpolationmode none
attr source decapPk
attr title "packets decapsulated, count"
scalar spineLeafNetwork.leaf4.eth[2].encap decapPk:sum(packetBytes) 3400
attr interpolationmode none
attr source decapPk
attr title "packets decapsulated, sum(packetBytes)"
scalar spineLeafNetwork.leaf4.eth[2].encap encapPk:count 42
attr interpolationmode none
attr source encapPk
attr title "packets encapsulated, count"
scalar spineLeafNetwork.leaf4.eth[2].encap encapPk:sum(packetBytes) 2968
attr interpolationmode none
attr source encapPk
attr title "packets encapsulated, sum(packetBytes)"
scalar spineLeafNetwork.leaf4.eth[3].mac.queue packetPopped:count 91
attr interpolationmode none
attr title "packet popped, count"
scalar spineLeafNetwork.leaf4.eth[3].mac.queue packetPopped:sum(packetBytes) 9244
attr interpolationmode none
attr title "packet popped, sum(packetBytes)"
statistic spineLeafNetwork.leaf4.eth[3].mac.queue queueingTime:histogram
field count 91
field mean 0
field stddev 0
field min 0
field max 0
field sum 0
field sqrsum 0
attr interpolationmode none
attr source queueingTime(packetPopped)
attr title "queueing times, histogram"
attr unit s
bin	-inf	0
bin	-0.5	0
bin	-0.48	0
bin	-0.46	0
bin	-0.44	0
bin	-0.42	0
bin	-0.4	0
bin	-0.38	0
bin	-0.36	0
bin	-0.34	0
bin	-0.32	0
bin	-0.3	0
bin	-0.28	0
bin	-0.26	0
bin	-0.24	0
bin	-0.22	0
bin	-0.2	0
bin	-0.18	0
bin	-0.16	0
bin	-0.14	0
bin	-0.12	0
bin	-0.1	0
bin	-0.08	0
bin	-0.06	0
bin	-0.04	0
bin	-0.02	0
bin	0	91
bin	0.02	0
bin	0.04	0
bin	0.06	0
bin	0.08	0
bin	0.1	0
bin	0.12	0
bin	0.14	0
bin	0.16	0
bin	0.18	0
bin	0.2	0
bin	0.22	0
bin	0.24	0
bin	0.26	0
bin	0.28	0
bin	0.3	0
bin	0.32	0
bin	0.34	0
bin	0.36	0
bin	0.38	0
bin	0.4	0
bin	0.42	0
bin	0.44	0
bin	0.46	0
bin	0.48	0
bin	0.5	0
scalar spineLeafNetwork.leaf4.eth[3].mac.queue queueLength:max 1
attr interpolationmode sample-hold
attr source "count(packetPushed) - count(packetPopped) - count(packetRemoved) - count(packetDropped)"
attr title "queue length, max"
scalar spineLeafNetwork.leaf4.eth[3].mac.queue queueLength:timeavg 0
attr interpolationmode sample-hold
attr source "count(packetPushed) - count(packetPopped) - count(packetRemoved) - count(packetDropped)"
attr title "queue length, timeavg"
scalar spineLeafNetwork.leaf4.eth[3].mac.queue packetPushed:count 91
attr interpolationmode none
attr title "packet pushed, count"
scalar spineLeafNetwork.leaf4.eth[3].mac.queue packetPushed:sum(packetBytes) 9244
attr interpolationmode none
attr title "packet pushed, sum(packetBytes)"
scalar spineLeafNetwork.leaf4.eth[3].mac.queue packetDropQueueOverflow:count 0
attr interpolationmode none
attr source packetDropReasonIsQueueOverflow(packetDropped)
attr title "packet drops: queue overflow, count"
scalar spineLeafNetwork.leaf4.eth[3].mac.queue packetDropQueueOverflow:sum(packetBytes) 0
attr interpolationmode none
attr source packetDropReasonIsQueueOverflow(packetDropped)
attr title "packet drops: queue overflow, sum(packetBytes)"
scalar spineLeafNetwork.leaf4.eth[3].mac.queue packetRemoved:count 0
attr interpolationmode none
attr title "packets removed, count"
scalar spineLeafNetwork.leaf4.eth[3].mac.queue packetRemoved:sum(packetBytes) 0
attr interpolationmode none
attr title "packets removed, sum(packetBytes)"
scalar spineLeafNetwork.leaf4.eth[3].mac "simulated time" 10.857945619849
scalar spineLeafNetwork.leaf4.eth[3].mac full-duplex 1
scalar spineLeafNetwork.leaf4.eth[3].mac "frames/sec sent" 8.3809592703841
scalar spineLeafNetwork.leaf4.eth[3].mac "frames/sec rcvd" 8.3809592703841
scalar spineLeafNetwork.leaf4.eth[3].mac "bits/sec sent" 6810.8648347631
scalar spineLeafNetwork.leaf4.eth[3].mac "bits/sec rcvd" 6810.8648347631
scalar spineLeafNetwork.leaf4.eth[3].mac "rx channel idle (%)" 100
scalar spineLeafNetwork.leaf4.eth[3].mac "rx channel utilization (%)" 0
scalar spineLeafNetwork.leaf4.eth[3].mac txPk:count 91
attr interpolationmode none
attr source packetSentToLower
attr title "packets transmitted, count"
scalar spineLeafNetwork.leaf4.eth[3].mac txPk:sum(packetBytes) 9244
attr interpolationmode none
attr source packetSentToLower
attr title "packets transmitted, sum(packetBytes)"
scalar spineLeafNetwork.leaf4.eth[3].mac packetReceivedFromUpper:count 91
attr interpolationmode none
attr source packetReceivedFromUpper
attr title "packet bytes from higher layer, count"
scalar spineLeafNetwork.leaf4.eth[3].mac packetReceivedFromUpper:sum(packetBytes) 9226
attr interpolationmode none
attr source packetReceivedFromUpper
attr title "packet bytes from higher layer, sum(packetBytes)"
scalar spineLeafNetwork.leaf4.eth[3].mac passedUpPk:count 91
attr interpolationmode none
attr source packetSentToUpper
attr title "packets passed to higher layer, count"
scalar spineLeafNetwork.leaf4.eth[3].mac passedUpPk:sum(packetBytes) 9244
attr interpolationmode none
attr source packetSentToUpper
attr title "packets passed to higher layer, sum(packetBytes)"
scalar spineLeafNetwork.leaf4.eth[3].mac packetDropIncorrectlyReceived:count 0
attr interpolationmode none
attr source packetDropReasonIsIncorrectlyReceived(packetDropped)
attr title "packet drop: incorrectly received, count"
scalar spineLeafNetwork.leaf4.eth[3].mac packetDropIncorrectlyReceived:sum(packetBytes) 0
attr interpolationmode none
attr source packetDropReasonIsIncorrectlyReceived(packetDropped)
attr title "packet drop: incorrectly received, sum(packetBytes)"
scalar spineLeafNetwork.leaf4.eth[3].mac packetDropInterfaceDown:count 0
attr interpolationmode none
attr source packetDropReasonIsInterfaceDown(packetDropped)
attr title "packet drop: interface down, count"
scalar spineLeafNetwork.leaf4.eth[3].mac packetDropInterfaceDown:sum(packetBytes) 0
attr interpolationmode none
attr source packetDropReasonIsInterfaceDown(packetDropped)
attr title "packet drop: interface down, sum(packetBytes)"
scalar spineLeafNetwork.leaf4.eth[3].mac packetDropNotAddressedToUs:count 0
attr interpolationmode none
attr source packetDropReasonIsNotAddressedToUs(packetDropped)
attr title "packet drop: not addressed to us, count"
scalar spineLeafNetwork.leaf4.eth[3].mac packetDropNotAddressedToUs:sum(packetBytes) 0
attr interpolationmode none
attr source packetDropReasonIsNotAddressedToUs(packetDropped)
attr title "packet drop: not addressed to us, sum(packetBytes)"
scalar spineLeafNetwork.leaf4.eth[3].mac rxPausePkUnits:count 0
attr interpolationmode none
attr title "pause units received, count"
scalar spineLeafNetwork.leaf4.eth[3].mac rxPausePkUnits:sum 0
attr interpolationmode none
attr title "pause units received, sum"
scalar spineLeafNetwork.leaf4.eth[3].mac txPausePkUnits:count 0
attr interpolationmode none
attr title "pause units sent, count"
scalar spineLeafNetwork.leaf4.eth[3].mac txPausePkUnits:sum 0
attr interpolationmode none
attr title "pause units sent, sum"
scalar spineLeafNetwork.leaf4.eth[3].mac rxPkOk:count 91
attr interpolationmode none
attr source rxPkOk
attr title "packets received OK, count"
scalar spineLeafNetwork.leaf4.eth[3].mac rxPkOk:sum(packetBytes) 9244
attr interpolationmode none
attr source rxPkOk
attr title "packets received OK, sum(packetBytes)"
scalar spineLeafNetwork.leaf4.eth[3].encap pauseSent:count 0
attr title "pause sent, count"
scalar spineLeafNetwork.leaf4.eth[3].encap pauseSent:sum 0
attr title "pause sent, sum"
scalar spineLeafNetwork.leaf4.eth[3].encap decapPk:count 91
attr interpolationmode none
attr source decapPk
attr title "packets decapsulated, count"
scalar spineLeafNetwork.leaf4.eth[3].encap decapPk:sum(packetBytes) 7606
attr interpolationmode none
attr source decapPk
attr title "packets decapsulated, sum(packetBytes)"
scalar spineLeafNetwork.leaf4.eth[3].encap encapPk:count 91
attr interpolationmode none
attr source encapPk
attr title "packets encapsulated, count"
scalar spineLeafNetwork.leaf4.eth[3].encap encapPk:sum(packetBytes) 7588
attr interpolationmode none
attr source encapPk
attr title "packets encapsulated, sum(packetBytes)"
scalar spineLeafNetwork.leaf4.ipv4.ip packetDropAddressResolutionFailed:count 0
attr interpolationmode none
attr source packetDropReasonIsAddressResolutionFailed(packetDropped)
attr title "packet drop: address resolution failed, count"
scalar spineLeafNetwork.leaf4.ipv4.ip packetDropAddressResolutionFailed:sum(packetBytes) 0
attr interpolationmode none
attr source packetDropReasonIsAddressResolutionFailed(packetDropped)
attr title "packet drop: address resolution failed, sum(packetBytes)"
[...]
attr interpolationmode none
attr source packetDropReasonIsHopLimitReached(packetDropped)
attr title "packet drop: hop limit reached, sum(packetBytes)"
scalar spineLeafNetwork.H4.ipv4.ip packetDropForwardingDisabled:count 0
attr interpolationmode none
attr source packetDropReasonIsForwardingDisabled(packetDropped)
attr title "packet drop: forwarding disabled, count"
scalar spineLeafNetwork.H4.ipv4.ip packetDropForwardingDisabled:sum(packetBytes) 0
attr interpolationmode none
attr source packetDropReasonIsForwardingDisabled(packetDropped)
attr title "packet drop: forwarding disabled, sum(packetBytes)"
scalar spineLeafNetwork.H4.ipv4.ip packetDropNoInterfaceFound:count 0
attr interpolationmode none
attr source packetDropReasonIsNoInterfaceFound(packetDropped)
attr title "packet drop: no interface found, count"
scalar spineLeafNetwork.H4.ipv4.ip packetDropNoInterfaceFound:sum(packetBytes) 0
attr interpolationmode none
attr source packetDropReasonIsNoInterfaceFound(packetDropped)
attr title "packet drop: no interface found, sum(packetBytes)"
scalar spineLeafNetwork.H4.ipv4.ip packetDropNoRouteFound:count 0
attr interpolationmode none
attr source packetDropReasonIsNoRouteFound(packetDropped)
attr title "packet drop: no route found, count"
scalar spineLeafNetwork.H4.ipv4.ip packetDropNoRouteFound:sum(packetBytes) 0
attr interpolationmode none
attr source packetDropReasonIsNoRouteFound(packetDropped)
attr title "packet drop: no route found, sum(packetBytes)"
scalar spineLeafNetwork.H4.ipv4.ip packetDropUndefined:count 0
attr interpolationmode none
attr source packetDropReasonIsUndefined(packetDropped)
attr title "packet drop: undefined, count"
scalar spineLeafNetwork.H4.ipv4.ip packetDropUndefined:sum(packetBytes) 0
attr interpolationmode none
attr source packetDropReasonIsUndefined(packetDropped)
attr title "packet drop: undefined, sum(packetBytes)"
scalar spineLeafNetwork.H4.ipv4.arp arpReplySent:count 0
attr source arpReplySent
attr title "ARP replies sent, count"
scalar spineLeafNetwork.H4.ipv4.arp arpReplySent:sum(packetBytes) 0
attr source arpReplySent
attr title "ARP replies sent, sum(packetBytes)"
scalar spineLeafNetwork.H4.ipv4.arp arpRequestSent:count 1
attr source arpRequestSent
attr title "ARP request sent, count"
scalar spineLeafNetwork.H4.ipv4.arp arpRequestSent:sum(packetBytes) 28
attr source arpRequestSent
attr title "ARP request sent, sum(packetBytes)"
scalar spineLeafNetwork.H4.ipv4.arp arpResolutionFailed:count 0
attr title "ARP failed resolutions, count"
scalar spineLeafNetwork.H4.ipv4.arp arpResolutionCompleted:count 1
attr title "ARP completed resolutions, count"
scalar spineLeafNetwork.H4.ipv4.arp arpResolutionInitiated:count 1
attr title "ARP initiated resolutions, count"
scalar spineLeafNetwork.H4.udp packetReceived:count 0
attr interpolationmode none
attr source packetReceived
attr title "packets received, count"
scalar spineLeafNetwork.H4.udp packetReceived:sum(packetBytes) 0
attr interpolationmode none
attr source packetReceived
attr title "packets received, sum(packetBytes)"
scalar spineLeafNetwork.H4.udp packetSent:count 0
attr interpolationmode none
attr source packetSent
attr title "packets sent, count"
scalar spineLeafNetwork.H4.udp packetSent:sum(packetBytes) 0
attr interpolationmode none
attr source packetSent
attr title "packets sent, sum(packetBytes)"
scalar spineLeafNetwork.H4.udp passedUpPk:count 0
attr interpolationmode none
attr source packetSentToUpper
attr title "packets passed up, count"
scalar spineLeafNetwork.H4.udp droppedPkWrongPort:count 0
attr interpolationmode none
attr source packetDropReasonIsNoPortFound(packetDropped)
attr title "packets dropped (wrong port), count"
scalar spineLeafNetwork.H4.udp droppedPkBadChecksum:count 0
attr interpolationmode none
attr source packetDropReasonIsIncorrectlyReceived(packetDropped)
attr title "packets dropped (checksum error), count"
scalar spineLeafNetwork.H4.app[0] "Pings sent" 10
scalar spineLeafNetwork.H4.app[0] "ping loss rate (%)" 0
scalar spineLeafNetwork.H4.app[0] "ping out-of-order rate (%)" 0
scalar spineLeafNetwork.H4.app[0] pingRxSeq:count 10
attr interpolationmode none
attr title "ping rx seq, count"
scalar spineLeafNetwork.H4.app[0] pingTxSeq:count 10
attr interpolationmode none
attr title "ping tx seq, count"
scalar spineLeafNetwork.H4.app[0] numOutOfOrderArrivals:last nan
attr interpolationmode none
attr title "ping out-of-order arrivals, last"
scalar spineLeafNetwork.H4.app[0] numLost:last nan
attr interpolationmode none
attr title "pings lost, last"
statistic spineLeafNetwork.H4.app[0] rtt:histogram
field count 10
field mean 8.1258e-005
field stddev 2.1530995641942e-005
field min 7.08e-005
field max 0.00014052
field sum 0.00081258
field sqrsum 7.02008796e-008
attr interpolationmode none
attr title "ping round-trip time, histogram"
attr unit s
bin	-inf	0
bin	5.2e-005	0
bin	5.4e-005	0
bin	5.6e-005	0
bin	5.8e-005	0
bin	6e-005	0
bin	6.2e-005	0
bin	6.4e-005	0
bin	6.6e-005	0
bin	6.8e-005	0
bin	7e-005	6
bin	7.2e-005	0
bin	7.4e-005	0
bin	7.6e-005	0
bin	7.8e-005	0
bin	8e-005	0
bin	8.2e-005	3
bin	8.4e-005	0
bin	8.6e-005	0
bin	8.8e-005	0
bin	9e-005	0
bin	9.2e-005	0
bin	9.4e-005	0
bin	9.6e-005	0
bin	9.8e-005	0
bin	0.0001	0
bin	0.000102	0
bin	0.000104	0
bin	0.000106	0
bin	0.000108	0
bin	0.00011	0
bin	0.000112	0
bin	0.000114	0
bin	0.000116	0
bin	0.000118	0
bin	0.00012	0
bin	0.000122	0
bin	0.000124	0
bin	0.000126	0
bin	0.000128	0
bin	0.00013	0
bin	0.000132	0
bin	0.000134	0
bin	0.000136	0
bin	0.000138	0
bin	0.00014	1
bin	0.000142	0
bin	0.000144	0
bin	0.000146	0
bin	0.000148	0
bin	0.00015	0
bin	0.000152	0
bin	0.000154	0
bin	0.000156	0
bin	0.000158	0
scalar spineLeafNetwork.H1.lo[0].lo rcvdPkFromHl:count 0
attr interpolationmode none
attr source packetReceivedFromUpper
attr title "packets received from higher layer, count"
scalar spineLeafNetwork.H1.lo[0].lo rcvdPkFromHl:sum(packetBytes) 0
attr interpolationmode none
attr source packetReceivedFromUpper
attr title "packets received from higher layer, sum(packetBytes)"
scalar spineLeafNetwork.H1.lo[0].lo passedUpPk:count 0
attr interpolationmode none
attr source packetSentToUpper
attr title "packets passed to higher layer, count"
scalar spineLeafNetwork.H1.lo[0].lo passedUpPk:sum(packetBytes) 0
attr interpolationmode none
attr source packetSentToUpper
attr title "packets passed to higher layer, sum(packetBytes)"
scalar spineLeafNetwork.H1.eth[0].mac.queue packetPopped:count 11
attr interpolationmode none
attr title "packet popped, count"
scalar spineLeafNetwork.H1.eth[0].mac.queue packetPopped:sum(packetBytes) 1084
attr interpolationmode none
attr title "packet popped, sum(packetBytes)"
statistic spineLeafNetwork.H1.eth[0].mac.queue queueingTime:histogram
field count 11
field mean 0
field stddev 0
field min 0
field max 0
field sum 0
field sqrsum 0
attr interpolationmode none
attr source queueingTime(packetPopped)
attr title "queueing times, histogram"
attr unit s
bin	-inf	0
bin	-0.5	0
bin	-0.48	0
bin	-0.46	0
bin	-0.44	0
bin	-0.42	0
bin	-0.4	0
bin	-0.38	0
bin	-0.36	0
bin	-0.34	0
bin	-0.32	0
bin	-0.3	0
bin	-0.28	0
bin	-0.26	0
bin	-0.24	0
bin	-0.22	0
bin	-0.2	0
bin	-0.18	0
bin	-0.16	0
bin	-0.14	0
bin	-0.12	0
bin	-0.1	0
bin	-0.08	0
bin	-0.06	0
bin	-0.04	0
bin	-0.02	0
bin	0	11
bin	0.02	0
bin	0.04	0
bin	0.06	0
bin	0.08	0
bin	0.1	0
bin	0.12	0
bin	0.14	0
bin	0.16	0
bin	0.18	0
bin	0.2	0
bin	0.22	0
bin	0.24	0
bin	0.26	0
bin	0.28	0
bin	0.3	0
bin	0.32	0
bin	0.34	0
bin	0.36	0
bin	0.38	0
bin	0.4	0
bin	0.42	0
bin	0.44	0
bin	0.46	0
bin	0.48	0
bin	0.5	0
scalar spineLeafNetwork.H1.eth[0].mac.queue queueLength:max 1
attr interpolationmode sample-hold
attr source "count(packetPushed) - count(packetPopped) - count(packetRemoved) - count(packetDropped)"
attr title "queue length, max"
scalar spineLeafNetwork.H1.eth[0].mac.queue queueLength:timeavg 0
attr interpolationmode sample-hold
attr source "count(packetPushed) - count(packetPopped) - count(packetRemoved) - count(packetDropped)"
attr title "queue length, timeavg"
scalar spineLeafNetwork.H1.eth[0].mac.queue packetPushed:count 11
attr interpolationmode none
attr title "packet pushed, count"
scalar spineLeafNetwork.H1.eth[0].mac.queue packetPushed:sum(packetBytes) 1084
attr interpolationmode none
attr title "packet pushed, sum(packetBytes)"
scalar spineLeafNetwork.H1.eth[0].mac.queue packetDropQueueOverflow:count 0
attr interpolationmode none
attr source packetDropReasonIsQueueOverflow(packetDropped)
attr title "packet drops: queue overflow, count"
scalar spineLeafNetwork.H1.eth[0].mac.queue packetDropQueueOverflow:sum(packetBytes) 0
attr interpolationmode none
attr source packetDropReasonIsQueueOverflow(packetDropped)
attr title "packet drops: queue overflow, sum(packetBytes)"
scalar spineLeafNetwork.H1.eth[0].mac.queue packetRemoved:count 0
attr interpolationmode none
attr title "packets removed, count"
scalar spineLeafNetwork.H1.eth[0].mac.queue packetRemoved:sum(packetBytes) 0
attr interpolationmode none
attr title "packets removed, sum(packetBytes)"
scalar spineLeafNetwork.H1.eth[0].mac "simulated time" 10.857945619849
scalar spineLeafNetwork.H1.eth[0].mac full-duplex 1
scalar spineLeafNetwork.H1.eth[0].mac "frames/sec sent" 1.0130829887277
scalar spineLeafNetwork.H1.eth[0].mac "frames/sec rcvd" 1.0130829887277
scalar spineLeafNetwork.H1.eth[0].mac "bits/sec sent" 798.67778893155
scalar spineLeafNetwork.H1.eth[0].mac "bits/sec rcvd" 798.67778893155
scalar spineLeafNetwork.H1.eth[0].mac "rx channel idle (%)" 100
scalar spineLeafNetwork.H1.eth[0].mac "rx channel utilization (%)" 0
scalar spineLeafNetwork.H1.eth[0].mac txPk:count 11
attr interpolationmode none
attr source packetSentToLower
attr title "packets transmitted, count"
scalar spineLeafNetwork.H1.eth[0].mac txPk:sum(packetBytes) 1084
attr interpolationmode none
attr source packetSentToLower
attr title "packets transmitted, sum(packetBytes)"
scalar spineLeafNetwork.H1.eth[0].mac packetReceivedFromUpper:count 11
attr interpolationmode none
attr source packetReceivedFromUpper
attr title "packet bytes from higher layer, count"
scalar spineLeafNetwork.H1.eth[0].mac packetReceivedFromUpper:sum(packetBytes) 1066
attr interpolationmode none
attr source packetReceivedFromUpper
attr title "packet bytes from higher layer, sum(packetBytes)"
scalar spineLeafNetwork.H1.eth[0].mac passedUpPk:count 11
attr interpolationmode none
attr source packetSentToUpper
attr title "packets passed to higher layer, count"
scalar spineLeafNetwork.H1.eth[0].mac passedUpPk:sum(packetBytes) 1084
attr interpolationmode none
attr source packetSentToUpper
attr title "packets passed to higher layer, sum(packetBytes)"
scalar spineLeafNetwork.H1.eth[0].mac packetDropIncorrectlyReceived:count 0
attr interpolationmode none
attr source packetDropReasonIsIncorrectlyReceived(packetDropped)
attr title "packet drop: incorrectly received, count"
scalar spineLeafNetwork.H1.eth[0].mac packetDropIncorrectlyReceived:sum(packetBytes) 0
attr interpolationmode none
attr source packetDropReasonIsIncorrectlyReceived(packetDropped)
attr title "packet drop: incorrectly received, sum(packetBytes)"
scalar spineLeafNetwork.H1.eth[0].mac packetDropInterfaceDown:count 0
attr interpolationmode none
attr source packetDropReasonIsInterfaceDown(packetDropped)
attr title "packet drop: interface down, count"
scalar spineLeafNetwork.H1.eth[0].mac packetDropInterfaceDown:sum(packetBytes) 0
attr interpolationmode none
attr source packetDropReasonIsInterfaceDown(packetDropped)
attr title "packet drop: interface down, sum(packetBytes)"
scalar spineLeafNetwork.H1.eth[0].mac packetDropNotAddressedToUs:count 0
attr interpolationmode none
attr source packetDropReasonIsNotAddressedToUs(packetDropped)
attr title "packet drop: not addressed to us, count"
scalar spineLeafNetwork.H1.eth[0].mac packetDropNotAddressedToUs:sum(packetBytes) 0
attr interpolationmode none
attr source packetDropReasonIsNotAddressedToUs(packetDropped)
attr title "packet drop: not addressed to us, sum(packetBytes)"
scalar spineLeafNetwork.H1.eth[0].mac rxPausePkUnits:count 0
attr interpolationmode none
attr title "pause units received, count"
scalar spineLeafNetwork.H1.eth[0].mac rxPausePkUnits:sum 0
attr interpolationmode none
attr title "pause units received, sum"
scalar spineLeafNetwork.H1.eth[0].mac txPausePkUnits:count 0
attr interpolationmode none
attr title "pause units sent, count"
scalar spineLeafNetwork.H1.eth[0].mac txPausePkUnits:sum 0
attr interpolationmode none
attr title "pause units sent, sum"
scalar spineLeafNetwork.H1.eth[0].mac rxPkOk:count 11
attr interpolationmode none
attr source rxPkOk
attr title "packets received OK, count"
scalar spineLeafNetwork.H1.eth[0].mac rxPkOk:sum(packetBytes) 1084
attr interpolationmode none
attr source rxPkOk
attr title "packets received OK, sum(packetBytes)"
scalar spineLeafNetwork.H1.eth[0].encap pauseSent:count 0
attr title "pause sent, count"
scalar spineLeafNetwork.H1.eth[0].encap pauseSent:sum 0
attr title "pause sent, sum"
scalar spineLeafNetwork.H1.eth[0].encap decapPk:count 11
attr interpolationmode none
attr source decapPk
attr title "packets decapsulated, count"
scalar spineLeafNetwork.H1.eth[0].encap decapPk:sum(packetBytes) 886
attr interpolationmode none
attr source decapPk
attr title "packets decapsulated, sum(packetBytes)"
scalar spineLeafNetwork.H1.eth[0].encap encapPk:count 11
attr interpolationmode none
attr source encapPk
attr title "packets encapsulated, count"
scalar spineLeafNetwork.H1.eth[0].encap encapPk:sum(packetBytes) 868
attr interpolationmode none
attr source encapPk
attr title "packets encapsulated, sum(packetBytes)"
scalar spineLeafNetwork.H1.ipv4.ip packetDropAddressResolutionFailed:count 0
attr interpolationmode none
attr source packetDropReasonIsAddressResolutionFailed(packetDropped)
attr title "packet drop: address resolution failed, count"
scalar spineLeafNetwork.H1.ipv4.ip packetDropAddressResolutionFailed:sum(packetBytes) 0
attr interpolationmode none
attr source packetDropReasonIsAddressResolutionFailed(packetDropped)
attr title "packet drop: address resolution failed, sum(packetBytes)"
scalar spineLeafNetwork.H1.ipv4.ip packetDropHopLimitReached:count 0
attr interpolationmode none
attr source packetDropReasonIsHopLimitReached(packetDropped)
attr title "packet drop: hop limit reached, count"
scalar spineLeafNetwork.H1.ipv4.ip packetDropHopLimitReached:sum(packetBytes) 0
attr interpolationmode none
attr source packetDropReasonIsHopLimitReached(packetDropped)
attr title "packet drop: hop limit reached, sum(packetBytes)"
scalar spineLeafNetwork.H1.ipv4.ip packetDropForwardingDisabled:count 0
attr interpolationmode none
attr source packetDropReasonIsForwardingDisabled(packetDropped)
attr title "packet drop: forwarding disabled, count"
scalar spineLeafNetwork.H1.ipv4.ip packetDropForwardingDisabled:sum(packetBytes) 0
attr interpolationmode none
attr source packetDropReasonIsForwardingDisabled(packetDropped)
attr title "packet drop: forwarding disabled, sum(packetBytes)"
scalar spineLeafNetwork.H1.ipv4.ip packetDropNoInterfaceFound:count 0
attr interpolationmode none
attr source packetDropReasonIsNoInterfaceFound(packetDropped)
attr title "packet drop: no interface found, count"
scalar spineLeafNetwork.H1.ipv4.ip packetDropNoInterfaceFound:sum(packetBytes) 0
attr interpolationmode none
attr source packetDropReasonIsNoInterfaceFound(packetDropped)
attr title "packet drop: no interface found, sum(packetBytes)"
scalar spineLeafNetwork.H1.ipv4.ip packetDropNoRouteFound:count 0
attr interpolationmode none
attr source packetDropReasonIsNoRouteFound(packetDropped)
attr title "packet drop: no route found, count"
scalar spineLeafNetwork.H1.ipv4.ip packetDropNoRouteFound:sum(packetBytes) 0
attr interpolationmode none
attr source packetDropReasonIsNoRouteFound(packetDropped)
attr title "packet drop: no route found, sum(packetBytes)"
scalar spineLeafNetwork.H1.ipv4.ip packetDropUndefined:count 0
attr interpolationmode none
attr source packetDropReasonIsUndefined(packetDropped)
attr title "packet drop: undefined, count"
scalar spineLeafNetwork.H1.ipv4.ip packetDropUndefined:sum(packetBytes) 0
attr interpolationmode none
attr source packetDropReasonIsUndefined(packetDropped)
attr title "packet drop: undefined, sum(packetBytes)"
scalar spineLeafNetwork.H1.ipv4.arp arpReplySent:count 0
attr source arpReplySent
attr title "ARP replies sent, count"
scalar spineLeafNetwork.H1.ipv4.arp arpReplySent:sum(packetBytes) 0
attr source arpReplySent
attr title "ARP replies sent, sum(packetBytes)"
scalar spineLeafNetwork.H1.ipv4.arp arpRequestSent:count 1
attr source arpRequestSent
attr title "ARP request sent, count"
scalar spineLeafNetwork.H1.ipv4.arp arpRequestSent:sum(packetBytes) 28
attr source arpRequestSent
attr title "ARP request sent, sum(packetBytes)"
scalar spineLeafNetwork.H1.ipv4.arp arpResolutionFailed:count 0
attr title "ARP failed resolutions, count"
scalar spineLeafNetwork.H1.ipv4.arp arpResolutionCompleted:count 1
attr title "ARP completed resolutions, count"
scalar spineLeafNetwork.H1.ipv4.arp arpResolutionInitiated:count 1
attr title "ARP initiated resolutions, count"
scalar spineLeafNetwork.H1.udp packetReceived:count 0
attr interpolationmode none
attr source packetReceived
attr title "packets received, count"
scalar spineLeafNetwork.H1.udp packetReceived:sum(packetBytes) 0
attr interpolationmode none
attr source packetReceived
attr title "packets received, sum(packetBytes)"
scalar spineLeafNetwork.H1.udp packetSent:count 0
attr interpolationmode none
attr source packetSent
attr title "packets sent, count"
scalar spineLeafNetwork.H1.udp packetSent:sum(packetBytes) 0
attr interpolationmode none
attr source packetSent
attr title "packets sent, sum(packetBytes)"
scalar spineLeafNetwork.H1.udp passedUpPk:count 0
attr interpolationmode none
attr source packetSentToUpper
attr title "packets passed up, count"
scalar spineLeafNetwork.H1.udp droppedPkWrongPort:count 0
attr interpolationmode none
attr source packetDropReasonIsNoPortFound(packetDropped)
attr title "packets dropped (wrong port), count"
scalar spineLeafNetwork.H1.udp droppedPkBadChecksum:count 0
attr interpolationmode none
attr source packetDropReasonIsIncorrectlyReceived(packetDropped)
attr title "packets dropped (checksum error), count"
scalar spineLeafNetwork.H1.app[0] "Pings sent" 10
scalar spineLeafNetwork.H1.app[0] "ping loss rate (%)" 0
scalar spineLeafNetwork.H1.app[0] "ping out-of-order rate (%)" 0
scalar spineLeafNetwork.H1.app[0] pingRxSeq:count 10
attr interpolationmode none
attr title "ping rx seq, count"
scalar spineLeafNetwork.H1.app[0] pingTxSeq:count 10
attr interpolationmode none
attr title "ping tx seq, count"
scalar spineLeafNetwork.H1.app[0] numOutOfOrderArrivals:last nan
attr interpolationmode none
attr title "ping out-of-order arrivals, last"
scalar spineLeafNetwork.H1.app[0] numLost:last nan
attr interpolationmode none
attr title "pings lost, last"
statistic spineLeafNetwork.H1.app[0] rtt:histogram
field count 10
field mean 7.661e-005
field stddev 1.1292610169684e-005
field min 7.08e-005
field max 0.00010566
field sum 0.0007661
field sqrsum 5.98386284e-008
attr interpolationmode none
attr title "ping round-trip time, histogram"
attr unit s
bin	-inf	0
bin	6.2e-005	0
bin	6.3e-005	0
bin	6.4e-005	0
bin	6.5e-005	0
bin	6.6e-005	0
bin	6.7e-005	0
bin	6.8e-005	0
bin	6.9e-005	0
bin	7e-005	7
bin	7.1e-005	0
bin	7.2e-005	0
bin	7.3e-005	0
bin	7.4e-005	0
bin	7.5e-005	0
bin	7.6e-005	0
bin	7.7e-005	0
bin	7.8e-005	0
bin	7.9e-005	0
bin	8e-005	0
bin	8.1e-005	0
bin	8.2e-005	2
bin	8.3e-005	0
bin	8.4e-005	0
bin	8.5e-005	0
bin	8.6e-005	0
bin	8.7e-005	0
bin	8.8e-005	0
bin	8.9e-005	0
bin	9e-005	0
bin	9.1e-005	0
bin	9.2e-005	0
bin	9.3e-005	0
bin	9.4e-005	0
bin	9.5e-005	0
bin	9.6e-005	0
bin	9.7e-005	0
bin	9.8e-005	0
bin	9.9e-005	0
bin	0.0001	0
bin	0.000101	0
bin	0.000102	0
bin	0.000103	0
bin	0.000104	0
bin	0.000105	1
bin	0.000106	0
bin	0.000107	0
bin	0.000108	0
bin	0.000109	0
bin	0.00011	0
bin	0.000111	0
bin	0.000112	0
bin	0.000113	0
bin	0.000114	0
bin	0.000115	0

