version 2
run Ping-0-20210121-15:23:00-2976
attr configname Ping
attr datetime 20210121-15:23:00
attr experiment Ping
attr inifile 10Host_SpineLeaf.ini
attr iterationvars ""
attr iterationvarsf ""
attr measurement ""
attr network spineLeafNetwork
attr processid 2976
attr repetition 0
attr replication #0
attr resultdir results
attr runnumber 0
attr seedset 0
param **.H*.numApps 1
param **.H*.app[0].typename "\"PingApp\""
param **.H*.app[0].destAddr "\"H10\""
param **.H*.app[0].count 10
param *.Visualizer.interfaceTableVisualizer.displayInterfaceTables true
param *.Visualizer.interfaceTableVisualizer.textColor "\"white\""
param *.Visualizer.interfaceTableVisualizer.displayBackground true
param *.Visualizer.interfaceTableVisualizer.displayWiredInterfacesAtConnections false
param *.Visualizer.interfaceTableVisualizer.backgroundColor "\"black\""
param *.Visualizer.interfaceTableVisualizer.opacity 0.75
param *.Visualizer.interfaceTableVisualizer.format "\"%N %\\\\%n/%l%\\\\%m\""
param **.configurator.config "xmldoc(\"10Host_SpineLeaf_Routing.xml\")"

vector 0 spineLeafNetwork.H4.app[0] pingTxSeq:vector ETV
attr interpolationmode none
attr title "ping tx seq, vector"
vector 1 spineLeafNetwork.H4.ipv4.arp arpRequestSent:vector(packetBytes) ETV
attr source arpRequestSent
attr title "ARP request sent, vector(packetBytes)"
vector 2 spineLeafNetwork.H4.eth[0].encap encapPk:vector(packetBytes) ETV
attr interpolationmode none
attr source encapPk
attr title "packets encapsulated, vector(packetBytes)"
vector 3 spineLeafNetwork.H4.eth[0].mac packetReceivedFromUpper:vector(packetBytes) ETV
attr interpolationmode none
attr source packetReceivedFromUpper
attr title "packet bytes from higher layer, vector(packetBytes)"
vector 4 spineLeafNetwork.H4.eth[0].mac.queue packetPushed:vector(packetBytes) ETV
attr interpolationmode none
attr title "packet pushed, vector(packetBytes)"
vector 5 spineLeafNetwork.H4.eth[0].mac.queue queueLength:vector ETV
attr interpolationmode sample-hold
attr source "count(packetPushed) - count(packetPopped) - count(packetRemoved) - count(packetDropped)"
attr title "queue length, vector"
vector 6 spineLeafNetwork.H4.eth[0].mac.queue packetPopped:vector(packetBytes) ETV
attr interpolationmode none
attr title "packet popped, vector(packetBytes)"
vector 7 spineLeafNetwork.H4.eth[0].mac.queue queueingTime:vector ETV
attr interpolationmode none
attr source queueingTime(packetPopped)
attr title "queueing times, vector"
attr unit s
vector 8 spineLeafNetwork.H4.eth[0].mac txPk:vector(packetBytes) ETV
attr interpolationmode none
attr source packetSentToLower
attr title "packets transmitted, vector(packetBytes)"
vector 9 spineLeafNetwork.leaf2.eth[3].mac rxPkOk:vector(packetBytes) ETV
attr interpolationmode none
attr source rxPkOk
attr title "packets received OK, vector(packetBytes)"
vector 10 spineLeafNetwork.leaf2.eth[3].mac passedUpPk:vector(packetBytes) ETV
attr interpolationmode none
attr source packetSentToUpper
attr title "packets passed to higher layer, vector(packetBytes)"
vector 11 spineLeafNetwork.leaf2.eth[3].encap decapPk:vector(packetBytes) ETV
attr interpolationmode none
attr source decapPk
attr title "packets decapsulated, vector(packetBytes)"
vector 12 spineLeafNetwork.leaf2.ipv4.arp arpReplySent:vector(packetBytes) ETV
attr source arpReplySent
attr title "ARP replies sent, vector(packetBytes)"
vector 13 spineLeafNetwork.leaf2.eth[3].encap encapPk:vector(packetBytes) ETV
attr interpolationmode none
attr source encapPk
attr title "packets encapsulated, vector(packetBytes)"
vector 14 spineLeafNetwork.leaf2.eth[3].mac packetReceivedFromUpper:vector(packetBytes) ETV
attr interpolationmode none
attr source packetReceivedFromUpper
attr title "packet bytes from higher layer, vector(packetBytes)"
vector 15 spineLeafNetwork.leaf2.eth[3].mac.queue packetPushed:vector(packetBytes) ETV
attr interpolationmode none
attr title "packet pushed, vector(packetBytes)"
vector 16 spineLeafNetwork.leaf2.eth[3].mac.queue queueLength:vector ETV
attr interpolationmode sample-hold
attr source "count(packetPushed) - count(packetPopped) - count(packetRemoved) - count(packetDropped)"
attr title "queue length, vector"
vector 17 spineLeafNetwork.leaf2.eth[3].mac.queue packetPopped:vector(packetBytes) ETV
attr interpolationmode none
attr title "packet popped, vector(packetBytes)"
vector 18 spineLeafNetwork.leaf2.eth[3].mac.queue queueingTime:vector ETV
attr interpolationmode none
attr source queueingTime(packetPopped)
attr title "queueing times, vector"
attr unit s
vector 19 spineLeafNetwork.leaf2.eth[3].mac txPk:vector(packetBytes) ETV
attr interpolationmode none
attr source packetSentToLower
attr title "packets transmitted, vector(packetBytes)"
vector 20 spineLeafNetwork.H4.eth[0].mac rxPkOk:vector(packetBytes) ETV
attr interpolationmode none
attr source rxPkOk
attr title "packets received OK, vector(packetBytes)"
vector 21 spineLeafNetwork.H4.eth[0].mac passedUpPk:vector(packetBytes) ETV
attr interpolationmode none
attr source packetSentToUpper
attr title "packets passed to higher layer, vector(packetBytes)"
vector 22 spineLeafNetwork.H4.eth[0].encap decapPk:vector(packetBytes) ETV
attr interpolationmode none
attr source decapPk
attr title "packets decapsulated, vector(packetBytes)"
vector 23 spineLeafNetwork.leaf2.ipv4.arp arpRequestSent:vector(packetBytes) ETV
attr source arpRequestSent
attr title "ARP request sent, vector(packetBytes)"
vector 24 spineLeafNetwork.leaf2.eth[2].encap encapPk:vector(packetBytes) ETV
attr interpolationmode none
attr source encapPk
attr title "packets encapsulated, vector(packetBytes)"
vector 25 spineLeafNetwork.leaf2.eth[2].mac packetReceivedFromUpper:vector(packetBytes) ETV
attr interpolationmode none
attr source packetReceivedFromUpper
attr title "packet bytes from higher layer, vector(packetBytes)"
vector 26 spineLeafNetwork.leaf2.eth[2].mac.queue packetPushed:vector(packetBytes) ETV
attr interpolationmode none
attr title "packet pushed, vector(packetBytes)"
vector 27 spineLeafNetwork.leaf2.eth[2].mac.queue queueLength:vector ETV
attr interpolationmode sample-hold
attr source "count(packetPushed) - count(packetPopped) - count(packetRemoved) - count(packetDropped)"
attr title "queue length, vector"
vector 28 spineLeafNetwork.leaf2.eth[2].mac.queue packetPopped:vector(packetBytes) ETV
attr interpolationmode none
attr title "packet popped, vector(packetBytes)"
vector 29 spineLeafNetwork.leaf2.eth[2].mac.queue queueingTime:vector ETV
attr interpolationmode none
attr source queueingTime(packetPopped)
attr title "queueing times, vector"
attr unit s
vector 30 spineLeafNetwork.leaf2.eth[2].mac txPk:vector(packetBytes) ETV
attr interpolationmode none
attr source packetSentToLower
attr title "packets transmitted, vector(packetBytes)"
vector 31 spineLeafNetwork.spine3.eth[1].mac rxPkOk:vector(packetBytes) ETV
attr interpolationmode none
attr source rxPkOk
attr title "packets received OK, vector(packetBytes)"
vector 32 spineLeafNetwork.spine3.eth[1].mac passedUpPk:vector(packetBytes) ETV
attr interpolationmode none
attr source packetSentToUpper
attr title "packets passed to higher layer, vector(packetBytes)"
vector 33 spineLeafNetwork.spine3.eth[1].encap decapPk:vector(packetBytes) ETV
attr interpolationmode none
attr source decapPk
attr title "packets decapsulated, vector(packetBytes)"
vector 34 spineLeafNetwork.spine3.ipv4.arp arpReplySent:vector(packetBytes) ETV
attr source arpReplySent
attr title "ARP replies sent, vector(packetBytes)"
vector 35 spineLeafNetwork.spine3.eth[1].encap encapPk:vector(packetBytes) ETV
attr interpolationmode none
attr source encapPk
attr title "packets encapsulated, vector(packetBytes)"
vector 36 spineLeafNetwork.spine3.eth[1].mac packetReceivedFromUpper:vector(packetBytes) ETV
attr interpolationmode none
attr source packetReceivedFromUpper
attr title "packet bytes from higher layer, vector(packetBytes)"
vector 37 spineLeafNetwork.spine3.eth[1].mac.queue packetPushed:vector(packetBytes) ETV
attr interpolationmode none
attr title "packet pushed, vector(packetBytes)"
vector 38 spineLeafNetwork.spine3.eth[1].mac.queue queueLength:vector ETV
attr interpolationmode sample-hold
attr source "count(packetPushed) - count(packetPopped) - count(packetRemoved) - count(packetDropped)"
attr title "queue length, vector"
vector 39 spineLeafNetwork.spine3.eth[1].mac.queue packetPopped:vector(packetBytes) ETV
attr interpolationmode none
attr title "packet popped, vector(packetBytes)"
vector 40 spineLeafNetwork.spine3.eth[1].mac.queue queueingTime:vector ETV
attr interpolationmode none
attr source queueingTime(packetPopped)
attr title "queueing times, vector"
attr unit s
vector 41 spineLeafNetwork.spine3.eth[1].mac txPk:vector(packetBytes) ETV
attr interpolationmode none
attr source packetSentToLower
attr title "packets transmitted, vector(packetBytes)"
vector 42 spineLeafNetwork.leaf2.eth[2].mac rxPkOk:vector(packetBytes) ETV
attr interpolationmode none
attr source rxPkOk
attr title "packets received OK, vector(packetBytes)"
vector 43 spineLeafNetwork.leaf2.eth[2].mac passedUpPk:vector(packetBytes) ETV
attr interpolationmode none
attr source packetSentToUpper
attr title "packets passed to higher layer, vector(packetBytes)"
vector 44 spineLeafNetwork.leaf2.eth[2].encap decapPk:vector(packetBytes) ETV
attr interpolationmode none
attr source decapPk
attr title "packets decapsulated, vector(packetBytes)"
vector 45 spineLeafNetwork.spine3.ipv4.arp arpRequestSent:vector(packetBytes) ETV
attr source arpRequestSent
attr title "ARP request sent, vector(packetBytes)"
vector 46 spineLeafNetwork.spine3.eth[3].encap encapPk:vector(packetBytes) ETV
attr interpolationmode none
attr source encapPk
attr title "packets encapsulated, vector(packetBytes)"
vector 47 spineLeafNetwork.spine3.eth[3].mac packetReceivedFromUpper:vector(packetBytes) ETV
attr interpolationmode none
attr source packetReceivedFromUpper
attr title "packet bytes from higher layer, vector(packetBytes)"
vector 48 spineLeafNetwork.spine3.eth[3].mac.queue packetPushed:vector(packetBytes) ETV
attr interpolationmode none
attr title "packet pushed, vector(packetBytes)"
vector 49 spineLeafNetwork.spine3.eth[3].mac.queue queueLength:vector ETV
attr interpolationmode sample-hold
attr source "count(packetPushed) - count(packetPopped) - count(packetRemoved) - count(packetDropped)"
attr title "queue length, vector"
vector 50 spineLeafNetwork.spine3.eth[3].mac.queue packetPopped:vector(packetBytes) ETV
attr interpolationmode none
attr title "packet popped, vector(packetBytes)"
vector 51 spineLeafNetwork.spine3.eth[3].mac.queue queueingTime:vector ETV
attr interpolationmode none
attr source queueingTime(packetPopped)
attr title "queueing times, vector"
attr unit s
vector 52 spineLeafNetwork.spine3.eth[3].mac txPk:vector(packetBytes) ETV
attr interpolationmode none
attr source packetSentToLower
attr title "packets transmitted, vector(packetBytes)"
vector 53 spineLeafNetwork.leaf4.eth[2].mac rxPkOk:vector(packetBytes) ETV
attr interpolationmode none
attr source rxPkOk
attr title "packets received OK, vector(packetBytes)"
vector 54 spineLeafNetwork.leaf4.eth[2].mac passedUpPk:vector(packetBytes) ETV
attr interpolationmode none
attr source packetSentToUpper
attr title "packets passed to higher layer, vector(packetBytes)"
vector 55 spineLeafNetwork.leaf4.eth[2].encap decapPk:vector(packetBytes) ETV
attr interpolationmode none
attr source decapPk
attr title "packets decapsulated, vector(packetBytes)"
vector 56 spineLeafNetwork.leaf4.ipv4.arp arpReplySent:vector(packetBytes) ETV
attr source arpReplySent
attr title "ARP replies sent, vector(packetBytes)"
vector 57 spineLeafNetwork.leaf4.eth[2].encap encapPk:vector(packetBytes) ETV
attr interpolationmode none
attr source encapPk
attr title "packets encapsulated, vector(packetBytes)"
vector 58 spineLeafNetwork.leaf4.eth[2].mac packetReceivedFromUpper:vector(packetBytes) ETV
attr interpolationmode none
attr source packetReceivedFromUpper
attr title "packet bytes from higher layer, vector(packetBytes)"
vector 59 spineLeafNetwork.leaf4.eth[2].mac.queue packetPushed:vector(packetBytes) ETV
attr interpolationmode none
attr title "packet pushed, vector(packetBytes)"
vector 60 spineLeafNetwork.leaf4.eth[2].mac.queue queueLength:vector ETV
attr interpolationmode sample-hold
attr source "count(packetPushed) - count(packetPopped) - count(packetRemoved) - count(packetDropped)"
attr title "queue length, vector"
vector 61 spineLeafNetwork.leaf4.eth[2].mac.queue packetPopped:vector(packetBytes) ETV
attr interpolationmode none
attr title "packet popped, vector(packetBytes)"
vector 62 spineLeafNetwork.leaf4.eth[2].mac.queue queueingTime:vector ETV
attr interpolationmode none
attr source queueingTime(packetPopped)
attr title "queueing times, vector"
attr unit s
vector 63 spineLeafNetwork.leaf4.eth[2].mac txPk:vector(packetBytes) ETV
attr interpolationmode none
attr source packetSentToLower
attr title "packets transmitted, vector(packetBytes)"
vector 64 spineLeafNetwork.spine3.eth[3].mac rxPkOk:vector(packetBytes) ETV
attr interpolationmode none
attr source rxPkOk
attr title "packets received OK, vector(packetBytes)"
vector 65 spineLeafNetwork.spine3.eth[3].mac passedUpPk:vector(packetBytes) ETV
attr interpolationmode none
attr source packetSentToUpper
attr title "packets passed to higher layer, vector(packetBytes)"
vector 66 spineLeafNetwork.spine3.eth[3].encap decapPk:vector(packetBytes) ETV
attr interpolationmode none
attr source decapPk
attr title "packets decapsulated, vector(packetBytes)"
vector 67 spineLeafNetwork.leaf4.ipv4.arp arpRequestSent:vector(packetBytes) ETV
attr source arpRequestSent
attr title "ARP request sent, vector(packetBytes)"
vector 68 spineLeafNetwork.leaf4.eth[3].encap encapPk:vector(packetBytes) ETV
attr interpolationmode none
attr source encapPk
attr title "packets encapsulated, vector(packetBytes)"
vector 69 spineLeafNetwork.leaf4.eth[3].mac packetReceivedFromUpper:vector(packetBytes) ETV
attr interpolationmode none
attr source packetReceivedFromUpper
attr title "packet bytes from higher layer, vector(packetBytes)"
vector 70 spineLeafNetwork.leaf4.eth[3].mac.queue packetPushed:vector(packetBytes) ETV
attr interpolationmode none
attr title "packet pushed, vector(packetBytes)"
vector 71 spineLeafNetwork.leaf4.eth[3].mac.queue queueLength:vector ETV
attr interpolationmode sample-hold
attr source "count(packetPushed) - count(packetPopped) - count(packetRemoved) - count(packetDropped)"
attr title "queue length, vector"
vector 72 spineLeafNetwork.leaf4.eth[3].mac.queue packetPopped:vector(packetBytes) ETV
attr interpolationmode none
attr title "packet popped, vector(packetBytes)"
vector 73 spineLeafNetwork.leaf4.eth[3].mac.queue queueingTime:vector ETV
attr interpolationmode none
attr source queueingTime(packetPopped)
attr title "queueing times, vector"
attr unit s
vector 74 spineLeafNetwork.leaf4.eth[3].mac txPk:vector(packetBytes) ETV
attr interpolationmode none
attr source packetSentToLower
attr title "packets transmitted, vector(packetBytes)"
vector 75 spineLeafNetwork.H10.eth[0].mac rxPkOk:vector(packetBytes) ETV
attr interpolationmode none
attr source rxPkOk
attr title "packets received OK, vector(packetBytes)"
vector 76 spineLeafNetwork.H10.eth[0].mac passedUpPk:vector(packetBytes) ETV
attr interpolationmode none
attr source packetSentToUpper
attr title "packets passed to higher layer, vector(packetBytes)"
vector 77 spineLeafNetwork.H10.eth[0].encap decapPk:vector(packetBytes) ETV
attr interpolationmode none
attr source decapPk
attr title "packets decapsulated, vector(packetBytes)"
vector 78 spineLeafNetwork.H10.ipv4.arp arpReplySent:vector(packetBytes) ETV
attr source arpReplySent
attr title "ARP replies sent, vector(packetBytes)"
vector 79 spineLeafNetwork.H10.eth[0].encap encapPk:vector(packetBytes) ETV
attr interpolationmode none
attr source encapPk
attr title "packets encapsulated, vector(packetBytes)"
vector 80 spineLeafNetwork.H10.eth[0].mac packetReceivedFromUpper:vector(packetBytes) ETV
attr interpolationmode none
attr source packetReceivedFromUpper
attr title "packet bytes from higher layer, vector(packetBytes)"
vector 81 spineLeafNetwork.H10.eth[0].mac.queue packetPushed:vector(packetBytes) ETV
attr interpolationmode none
attr title "packet pushed, vector(packetBytes)"
vector 82 spineLeafNetwork.H10.eth[0].mac.queue queueLength:vector ETV
attr interpolationmode sample-hold
attr source "count(packetPushed) - count(packetPopped) - count(packetRemoved) - count(packetDropped)"
attr title "queue length, vector"
vector 83 spineLeafNetwork.H10.eth[0].mac.queue packetPopped:vector(packetBytes) ETV
attr interpolationmode none
attr title "packet popped, vector(packetBytes)"
vector 84 spineLeafNetwork.H10.eth[0].mac.queue queueingTime:vector ETV
attr interpolationmode none
attr source queueingTime(packetPopped)
attr title "queueing times, vector"
attr unit s
vector 85 spineLeafNetwork.H10.eth[0].mac txPk:vector(packetBytes) ETV
attr interpolationmode none
attr source packetSentToLower
attr title "packets transmitted, vector(packetBytes)"
vector 86 spineLeafNetwork.leaf4.eth[3].mac rxPkOk:vector(packetBytes) ETV
attr interpolationmode none
attr source rxPkOk
attr title "packets received OK, vector(packetBytes)"
vector 87 spineLeafNetwork.leaf4.eth[3].mac passedUpPk:vector(packetBytes) ETV
attr interpolationmode none
attr source packetSentToUpper
attr title "packets passed to higher layer, vector(packetBytes)"
vector 88 spineLeafNetwork.leaf4.eth[3].encap decapPk:vector(packetBytes) ETV
attr interpolationmode none
attr source decapPk
attr title "packets decapsulated, vector(packetBytes)"
vector 89 spineLeafNetwork.leaf4.eth[1].encap encapPk:vector(packetBytes) ETV
attr interpolationmode none
attr source encapPk
attr title "packets encapsulated, vector(packetBytes)"
vector 90 spineLeafNetwork.leaf4.eth[1].mac packetReceivedFromUpper:vector(packetBytes) ETV
attr interpolationmode none
attr source packetReceivedFromUpper
attr title "packet bytes from higher layer, vector(packetBytes)"
vector 91 spineLeafNetwork.leaf4.eth[1].mac.queue packetPushed:vector(packetBytes) ETV
attr interpolationmode none
attr title "packet pushed, vector(packetBytes)"
vector 92 spineLeafNetwork.leaf4.eth[1].mac.queue queueLength:vector ETV
attr interpolationmode sample-hold
attr source "count(packetPushed) - count(packetPopped) - count(packetRemoved) - count(packetDropped)"
attr title "queue length, vector"
vector 93 spineLeafNetwork.leaf4.eth[1].mac.queue packetPopped:vector(packetBytes) ETV
attr interpolationmode none
attr title "packet popped, vector(packetBytes)"
vector 94 spineLeafNetwork.leaf4.eth[1].mac.queue queueingTime:vector ETV
attr interpolationmode none
attr source queueingTime(packetPopped)
attr title "queueing times, vector"
attr unit s
vector 95 spineLeafNetwork.leaf4.eth[1].mac txPk:vector(packetBytes) ETV
attr interpolationmode none
attr source packetSentToLower
attr title "packets transmitted, vector(packetBytes)"
vector 96 spineLeafNetwork.spine2.eth[3].mac rxPkOk:vector(packetBytes) ETV
attr interpolationmode none
attr source rxPkOk
attr title "packets received OK, vector(packetBytes)"
vector 97 spineLeafNetwork.spine2.eth[3].mac passedUpPk:vector(packetBytes) ETV
attr interpolationmode none
attr source packetSentToUpper
attr title "packets passed to higher layer, vector(packetBytes)"
vector 98 spineLeafNetwork.spine2.eth[3].encap decapPk:vector(packetBytes) ETV
attr interpolationmode none
attr source decapPk
attr title "packets decapsulated, vector(packetBytes)"
vector 99 spineLeafNetwork.spine2.ipv4.arp arpReplySent:vector(packetBytes) ETV
attr source arpReplySent
attr title "ARP replies sent, vector(packetBytes)"
vector 100 spineLeafNetwork.spine2.eth[3].encap encapPk:vector(packetBytes) ETV
attr interpolationmode none
attr source encapPk
attr title "packets encapsulated, vector(packetBytes)"
vector 101 spineLeafNetwork.spine2.eth[3].mac packetReceivedFromUpper:vector(packetBytes) ETV
attr interpolationmode none
attr source packetReceivedFromUpper
attr title "packet bytes from higher layer, vector(packetBytes)"
vector 102 spineLeafNetwork.spine2.eth[3].mac.queue packetPushed:vector(packetBytes) ETV
attr interpolationmode none
attr title "packet pushed, vector(packetBytes)"
vector 103 spineLeafNetwork.spine2.eth[3].mac.queue queueLength:vector ETV
attr interpolationmode sample-hold
attr source "count(packetPushed) - count(packetPopped) - count(packetRemoved) - count(packetDropped)"
attr title "queue length, vector"
vector 104 spineLeafNetwork.spine2.eth[3].mac.queue packetPopped:vector(packetBytes) ETV
attr interpolationmode none
attr title "packet popped, vector(packetBytes)"
vector 105 spineLeafNetwork.spine2.eth[3].mac.queue queueingTime:vector ETV
attr interpolationmode none
attr source queueingTime(packetPopped)
attr title "queueing times, vector"
attr unit s
vector 106 spineLeafNetwork.spine2.eth[3].mac txPk:vector(packetBytes) ETV
attr interpolationmode none
attr source packetSentToLower
attr title "packets transmitted, vector(packetBytes)"
vector 107 spineLeafNetwork.leaf4.eth[1].mac rxPkOk:vector(packetBytes) ETV
attr interpolationmode none
attr source rxPkOk
attr title "packets received OK, vector(packetBytes)"
vector 108 spineLeafNetwork.leaf4.eth[1].mac passedUpPk:vector(packetBytes) ETV
attr interpolationmode none
attr source packetSentToUpper
attr title "packets passed to higher layer, vector(packetBytes)"
vector 109 spineLeafNetwork.leaf4.eth[1].encap decapPk:vector(packetBytes) ETV
attr interpolationmode none
attr source decapPk
attr title "packets decapsulated, vector(packetBytes)"
vector 110 spineLeafNetwork.spine2.ipv4.arp arpRequestSent:vector(packetBytes) ETV
attr source arpRequestSent
attr title "ARP request sent, vector(packetBytes)"
vector 111 spineLeafNetwork.spine2.eth[1].encap encapPk:vector(packetBytes) ETV
attr interpolationmode none
attr source encapPk
attr title "packets encapsulated, vector(packetBytes)"
vector 112 spineLeafNetwork.spine2.eth[1].mac packetReceivedFromUpper:vector(packetBytes) ETV
attr interpolationmode none
attr source packetReceivedFromUpper
attr title "packet bytes from higher layer, vector(packetBytes)"
vector 113 spineLeafNetwork.spine2.eth[1].mac.queue packetPushed:vector(packetBytes) ETV
attr interpolationmode none
attr title "packet pushed, vector(packetBytes)"
vector 114 spineLeafNetwork.spine2.eth[1].mac.queue queueLength:vector ETV
attr interpolationmode sample-hold
attr source "count(packetPushed) - count(packetPopped) - count(packetRemoved) - count(packetDropped)"
attr title "queue length, vector"
vector 115 spineLeafNetwork.spine2.eth[1].mac.queue packetPopped:vector(packetBytes) ETV
attr interpolationmode none
attr title "packet popped, vector(packetBytes)"
vector 116 spineLeafNetwork.spine2.eth[1].mac.queue queueingTime:vector ETV
attr interpolationmode none
attr source queueingTime(packetPopped)
attr title "queueing times, vector"
attr unit s
vector 117 spineLeafNetwork.spine2.eth[1].mac txPk:vector(packetBytes) ETV
attr interpolationmode none
attr source packetSentToLower
attr title "packets transmitted, vector(packetBytes)"
vector 118 spineLeafNetwork.leaf2.eth[1].mac rxPkOk:vector(packetBytes) ETV
attr interpolationmode none
attr source rxPkOk
attr title "packets received OK, vector(packetBytes)"
vector 119 spineLeafNetwork.leaf2.eth[1].mac passedUpPk:vector(packetBytes) ETV
attr interpolationmode none
attr source packetSentToUpper
attr title "packets passed to higher layer, vector(packetBytes)"
vector 120 spineLeafNetwork.leaf2.eth[1].encap decapPk:vector(packetBytes) ETV
attr interpolationmode none
attr source decapPk
attr title "packets decapsulated, vector(packetBytes)"
vector 121 spineLeafNetwork.leaf2.eth[1].encap encapPk:vector(packetBytes) ETV
attr interpolationmode none
attr source encapPk
attr title "packets encapsulated, vector(packetBytes)"
vector 122 spineLeafNetwork.leaf2.eth[1].mac packetReceivedFromUpper:vector(packetBytes) ETV
attr interpolationmode none
attr source packetReceivedFromUpper
attr title "packet bytes from higher layer, vector(packetBytes)"
vector 123 spineLeafNetwork.leaf2.eth[1].mac.queue packetPushed:vector(packetBytes) ETV
attr interpolationmode none
attr title "packet pushed, vector(packetBytes)"
vector 124 spineLeafNetwork.leaf2.eth[1].mac.queue queueLength:vector ETV
attr interpolationmode sample-hold
attr source "count(packetPushed) - count(packetPopped) - count(packetRemoved) - count(packetDropped)"
attr title "queue length, vector"
vector 125 spineLeafNetwork.leaf2.eth[1].mac.queue packetPopped:vector(packetBytes) ETV
attr interpolationmode none
attr title "packet popped, vector(packetBytes)"
vector 126 spineLeafNetwork.leaf2.eth[1].mac.queue queueingTime:vector ETV
attr interpolationmode none
attr source queueingTime(packetPopped)
attr title "queueing times, vector"
attr unit s
vector 127 spineLeafNetwork.leaf2.eth[1].mac txPk:vector(packetBytes) ETV
attr interpolationmode none
attr source packetSentToLower
attr title "packets transmitted, vector(packetBytes)"
vector 128 spineLeafNetwork.spine2.eth[1].mac rxPkOk:vector(packetBytes) ETV
attr interpolationmode none
attr source rxPkOk
attr title "packets received OK, vector(packetBytes)"
vector 129 spineLeafNetwork.spine2.eth[1].mac passedUpPk:vector(packetBytes) ETV
attr interpolationmode none
attr source packetSentToUpper
attr title "packets passed to higher layer, vector(packetBytes)"
vector 130 spineLeafNetwork.spine2.eth[1].encap decapPk:vector(packetBytes) ETV
attr interpolationmode none
attr source decapPk
attr title "packets decapsulated, vector(packetBytes)"
vector 131 spineLeafNetwork.H4.app[0] pingRxSeq:vector ETV
attr interpolationmode none
attr title "ping rx seq, vector"
vector 132 spineLeafNetwork.H4.app[0] rtt:vector ETV
attr interpolationmode none
attr title "ping round-trip time, vector"
attr unit s
vector 133 spineLeafNetwork.H6.app[0] pingTxSeq:vector ETV
attr interpolationmode none
attr title "ping tx seq, vector"
vector 134 spineLeafNetwork.H6.ipv4.arp arpRequestSent:vector(packetBytes) ETV
attr source arpRequestSent
attr title "ARP request sent, vector(packetBytes)"
vector 135 spineLeafNetwork.H6.eth[0].encap encapPk:vector(packetBytes) ETV
attr interpolationmode none
attr source encapPk
attr title "packets encapsulated, vector(packetBytes)"
vector 136 spineLeafNetwork.H6.eth[0].mac packetReceivedFromUpper:vector(packetBytes) ETV
attr interpolationmode none
attr source packetReceivedFromUpper
attr title "packet bytes from higher layer, vector(packetBytes)"
vector 137 spineLeafNetwork.H6.eth[0].mac.queue packetPushed:vector(packetBytes) ETV
attr interpolationmode none
attr title "packet pushed, vector(packetBytes)"
vector 138 spineLeafNetwork.H6.eth[0].mac.queue queueLength:vector ETV
attr interpolationmode sample-hold
attr source "count(packetPushed) - count(packetPopped) - count(packetRemoved) - count(packetDropped)"
attr title "queue length, vector"
vector 139 spineLeafNetwork.H6.eth[0].mac.queue packetPopped:vector(packetBytes) ETV
attr interpolationmode none
attr title "packet popped, vector(packetBytes)"
vector 140 spineLeafNetwork.H6.eth[0].mac.queue queueingTime:vector ETV
attr interpolationmode none
attr source queueingTime(packetPopped)
attr title "queueing times, vector"
attr unit s
vector 141 spineLeafNetwork.H6.eth[0].mac txPk:vector(packetBytes) ETV
attr interpolationmode none
attr source packetSentToLower
attr title "packets transmitted, vector(packetBytes)"
vector 142 spineLeafNetwork.leaf2.eth[5].mac rxPkOk:vector(packetBytes) ETV
attr interpolationmode none
attr source rxPkOk
attr title "packets received OK, vector(packetBytes)"
vector 143 spineLeafNetwork.leaf2.eth[5].mac passedUpPk:vector(packetBytes) ETV
attr interpolationmode none
attr source packetSentToUpper
attr title "packets passed to higher layer, vector(packetBytes)"
vector 144 spineLeafNetwork.leaf2.eth[5].encap decapPk:vector(packetBytes) ETV
attr interpolationmode none
attr source decapPk
attr title "packets decapsulated, vector(packetBytes)"
vector 145 spineLeafNetwork.leaf2.eth[5].encap encapPk:vector(packetBytes) ETV
attr interpolationmode none
attr source encapPk
attr title "packets encapsulated, vector(packetBytes)"
vector 146 spineLeafNetwork.leaf2.eth[5].mac packetReceivedFromUpper:vector(packetBytes) ETV
attr interpolationmode none
attr source packetReceivedFromUpper
attr title "packet bytes from higher layer, vector(packetBytes)"
vector 147 spineLeafNetwork.leaf2.eth[5].mac.queue packetPushed:vector(packetBytes) ETV
attr interpolationmode none
attr title "packet pushed, vector(packetBytes)"
vector 148 spineLeafNetwork.leaf2.eth[5].mac.queue queueLength:vector ETV
attr interpolationmode sample-hold
attr source "count(packetPushed) - count(packetPopped) - count(packetRemoved) - count(packetDropped)"
attr title "queue length, vector"
vector 149 spineLeafNetwork.leaf2.eth[5].mac.queue packetPopped:vector(packetBytes) ETV
attr interpolationmode none
attr title "packet popped, vector(packetBytes)"
vector 150 spineLeafNetwork.leaf2.eth[5].mac.queue queueingTime:vector ETV
attr interpolationmode none
attr source queueingTime(packetPopped)
attr title "queueing times, vector"
attr unit s
vector 151 spineLeafNetwork.leaf2.eth[5].mac txPk:vector(packetBytes) ETV
attr interpolationmode none
attr source packetSentToLower
attr title "packets transmitted, vector(packetBytes)"
vector 152 spineLeafNetwork.H6.eth[0].mac rxPkOk:vector(packetBytes) ETV
attr interpolationmode none
attr source rxPkOk
attr title "packets received OK, vector(packetBytes)"
vector 153 spineLeafNetwork.H6.eth[0].mac passedUpPk:vector(packetBytes) ETV
attr interpolationmode none
attr source packetSentToUpper
attr title "packets passed to higher layer, vector(packetBytes)"
vector 154 spineLeafNetwork.H6.eth[0].encap decapPk:vector(packetBytes) ETV
attr interpolationmode none
attr source decapPk
attr title "packets decapsulated, vector(packetBytes)"
vector 155 spineLeafNetwork.H6.app[0] pingRxSeq:vector ETV
attr interpolationmode none
attr title "ping rx seq, vector"
vector 156 spineLeafNetwork.H6.app[0] rtt:vector ETV
attr interpolationmode none
attr title "ping round-trip time, vector"
attr unit s
vector 157 spineLeafNetwork.H2.app[0] pingTxSeq:vector ETV
attr interpolationmode none
attr title "ping tx seq, vector"
vector 158 spineLeafNetwork.H2.ipv4.arp arpRequestSent:vector(packetBytes) ETV
attr source arpRequestSent
attr title "ARP request sent, vector(packetBytes)"
vector 159 spineLeafNetwork.H2.eth[0].encap encapPk:vector(packetBytes) ETV
attr interpolationmode none
attr source encapPk
attr title "packets encapsulated, vector(packetBytes)"
vector 160 spineLeafNetwork.H2.eth[0].mac packetReceivedFromUpper:vector(packetBytes) ETV
attr interpolationmode none
attr source packetReceivedFromUpper
attr title "packet bytes from higher layer, vector(packetBytes)"
vector 161 spineLeafNetwork.H2.eth[0].mac.queue packetPushed:vector(packetBytes) ETV
attr interpolationmode none
attr title "packet pushed, vector(packetBytes)"
vector 162 spineLeafNetwork.H2.eth[0].mac.queue queueLength:vector ETV
attr interpolationmode sample-hold
attr source "count(packetPushed) - count(packetPopped) - count(packetRemoved) - count(packetDropped)"
attr title "queue length, vector"
vector 163 spineLeafNetwork.H2.eth[0].mac.queue packetPopped:vector(packetBytes) ETV
attr interpolationmode none
attr title "packet popped, vector(packetBytes)"
vector 164 spineLeafNetwork.H2.eth[0].mac.queue queueingTime:vector ETV
attr interpolationmode none
attr source queueingTime(packetPopped)
attr title "queueing times, vector"
attr unit s
vector 165 spineLeafNetwork.H2.eth[0].mac txPk:vector(packetBytes) ETV
attr interpolationmode none
attr source packetSentToLower
attr title "packets transmitted, vector(packetBytes)"
vector 166 spineLeafNetwork.leaf1.eth[4].mac rxPkOk:vector(packetBytes) ETV
attr interpolationmode none
attr source rxPkOk
attr title "packets received OK, vector(packetBytes)"
vector 167 spineLeafNetwork.leaf1.eth[4].mac passedUpPk:vector(packetBytes) ETV
attr interpolationmode none
attr source packetSentToUpper
attr title "packets passed to higher layer, vector(packetBytes)"
vector 168 spineLeafNetwork.leaf1.eth[4].encap decapPk:vector(packetBytes) ETV
attr interpolationmode none
attr source decapPk
attr title "packets decapsulated, vector(packetBytes)"
vector 169 spineLeafNetwork.leaf1.ipv4.arp arpReplySent:vector(packetBytes) ETV
attr source arpReplySent
attr title "ARP replies sent, vector(packetBytes)"
vector 170 spineLeafNetwork.leaf1.eth[4].encap encapPk:vector(packetBytes) ETV
attr interpolationmode none
attr source encapPk
attr title "packets encapsulated, vector(packetBytes)"
vector 171 spineLeafNetwork.leaf1.eth[4].mac packetReceivedFromUpper:vector(packetBytes) ETV
attr interpolationmode none
attr source packetReceivedFromUpper
attr title "packet bytes from higher layer, vector(packetBytes)"
vector 172 spineLeafNetwork.leaf1.eth[4].mac.queue packetPushed:vector(packetBytes) ETV
attr interpolationmode none
attr title "packet pushed, vector(packetBytes)"
vector 173 spineLeafNetwork.leaf1.eth[4].mac.queue queueLength:vector ETV
attr interpolationmode sample-hold
attr source "count(packetPushed) - count(packetPopped) - count(packetRemoved) - count(packetDropped)"
attr title "queue length, vector"
vector 174 spineLeafNetwork.leaf1.eth[4].mac.queue packetPopped:vector(packetBytes) ETV
attr interpolationmode none
attr title "packet popped, vector(packetBytes)"
vector 175 spineLeafNetwork.leaf1.eth[4].mac.queue queueingTime:vector ETV
attr interpolationmode none
attr source queueingTime(packetPopped)
attr title "queueing times, vector"
attr unit s
vector 176 spineLeafNetwork.leaf1.eth[4].mac txPk:vector(packetBytes) ETV
attr interpolationmode none
attr source packetSentToLower
attr title "packets transmitted, vector(packetBytes)"
vector 177 spineLeafNetwork.H2.eth[0].mac rxPkOk:vector(packetBytes) ETV
attr interpolationmode none
attr source rxPkOk
attr title "packets received OK, vector(packetBytes)"
vector 178 spineLeafNetwork.H2.eth[0].mac passedUpPk:vector(packetBytes) ETV
attr interpolationmode none
attr source packetSentToUpper
attr title "packets passed to higher layer, vector(packetBytes)"
vector 179 spineLeafNetwork.H2.eth[0].encap decapPk:vector(packetBytes) ETV
attr interpolationmode none
attr source decapPk
attr title "packets decapsulated, vector(packetBytes)"
vector 180 spineLeafNetwork.leaf1.ipv4.arp arpRequestSent:vector(packetBytes) ETV
attr source arpRequestSent
attr title "ARP request sent, vector(packetBytes)"
vector 181 spineLeafNetwork.leaf1.eth[0].encap encapPk:vector(packetBytes) ETV
attr interpolationmode none
attr source encapPk
attr title "packets encapsulated, vector(packetBytes)"
vector 182 spineLeafNetwork.leaf1.eth[0].mac packetReceivedFromUpper:vector(packetBytes) ETV
attr interpolationmode none
attr source packetReceivedFromUpper
attr title "packet bytes from higher layer, vector(packetBytes)"
vector 183 spineLeafNetwork.leaf1.eth[0].mac.queue packetPushed:vector(packetBytes) ETV
attr interpolationmode none
attr title "packet pushed, vector(packetBytes)"
vector 184 spineLeafNetwork.leaf1.eth[0].mac.queue queueLength:vector ETV
attr interpolationmode sample-hold
attr source "count(packetPushed) - count(packetPopped) - count(packetRemoved) - count(packetDropped)"
attr title "queue length, vector"
vector 185 spineLeafNetwork.leaf1.eth[0].mac.queue packetPopped:vector(packetBytes) ETV
attr interpolationmode none
attr title "packet popped, vector(packetBytes)"
vector 186 spineLeafNetwork.leaf1.eth[0].mac.queue queueingTime:vector ETV
attr interpolationmode none
attr source queueingTime(packetPopped)
attr title "queueing times, vector"
attr unit s
vector 187 spineLeafNetwork.leaf1.eth[0].mac txPk:vector(packetBytes) ETV
attr interpolationmode none
attr source packetSentToLower
attr title "packets transmitted, vector(packetBytes)"
vector 188 spineLeafNetwork.spine1.eth[0].mac rxPkOk:vector(packetBytes) ETV
attr interpolationmode none
attr source rxPkOk
attr title "packets received OK, vector(packetBytes)"
vector 189 spineLeafNetwork.spine1.eth[0].mac passedUpPk:vector(packetBytes) ETV
attr interpolationmode none
attr source packetSentToUpper
attr title "packets passed to higher layer, vector(packetBytes)"
vector 190 spineLeafNetwork.spine1.eth[0].encap decapPk:vector(packetBytes) ETV
attr interpolationmode none
attr source decapPk
attr title "packets decapsulated, vector(packetBytes)"
vector 191 spineLeafNetwork.spine1.ipv4.arp arpReplySent:vector(packetBytes) ETV
attr source arpReplySent
attr title "ARP replies sent, vector(packetBytes)"
vector 192 spineLeafNetwork.spine1.eth[0].encap encapPk:vector(packetBytes) ETV
attr interpolationmode none
attr source encapPk
attr title "packets encapsulated, vector(packetBytes)"
vector 193 spineLeafNetwork.spine1.eth[0].mac packetReceivedFromUpper:vector(packetBytes) ETV
attr interpolationmode none
attr source packetReceivedFromUpper
attr title "packet bytes from higher layer, vector(packetBytes)"
vector 194 spineLeafNetwork.spine1.eth[0].mac.queue packetPushed:vector(packetBytes) ETV
attr interpolationmode none
attr title "packet pushed, vector(packetBytes)"
vector 195 spineLeafNetwork.spine1.eth[0].mac.queue queueLength:vector ETV
attr interpolationmode sample-hold
attr source "count(packetPushed) - count(packetPopped) - count(packetRemoved) - count(packetDropped)"
attr title "queue length, vector"
vector 196 spineLeafNetwork.spine1.eth[0].mac.queue packetPopped:vector(packetBytes) ETV
attr interpolationmode none
attr title "packet popped, vector(packetBytes)"
vector 197 spineLeafNetwork.spine1.eth[0].mac.queue queueingTime:vector ETV
attr interpolationmode none
attr source queueingTime(packetPopped)
attr title "queueing times, vector"
attr unit s
vector 198 spineLeafNetwork.spine1.eth[0].mac txPk:vector(packetBytes) ETV
attr interpolationmode none
attr source packetSentToLower
attr title "packets transmitted, vector(packetBytes)"
vector 199 spineLeafNetwork.leaf1.eth[0].mac rxPkOk:vector(packetBytes) ETV
attr interpolationmode none
attr source rxPkOk
attr title "packets received OK, vector(packetBytes)"
vector 200 spineLeafNetwork.leaf1.eth[0].mac passedUpPk:vector(packetBytes) ETV
attr interpolationmode none
attr source packetSentToUpper
attr title "packets passed to higher layer, vector(packetBytes)"
vector 201 spineLeafNetwork.leaf1.eth[0].encap decapPk:vector(packetBytes) ETV
attr interpolationmode none
attr source decapPk
attr title "packets decapsulated, vector(packetBytes)"
vector 202 spineLeafNetwork.spine1.ipv4.arp arpRequestSent:vector(packetBytes) ETV
attr source arpRequestSent
attr title "ARP request sent, vector(packetBytes)"
vector 203 spineLeafNetwork.spine1.eth[3].encap encapPk:vector(packetBytes) ETV
attr interpolationmode none
attr source encapPk
attr title "packets encapsulated, vector(packetBytes)"
vector 204 spineLeafNetwork.spine1.eth[3].mac packetReceivedFromUpper:vector(packetBytes) ETV
attr interpolationmode none
attr source packetReceivedFromUpper
attr title "packet bytes from higher layer, vector(packetBytes)"
vector 205 spineLeafNetwork.spine1.eth[3].mac.queue packetPushed:vector(packetBytes) ETV
attr interpolationmode none
attr title "packet pushed, vector(packetBytes)"
vector 206 spineLeafNetwork.spine1.eth[3].mac.queue queueLength:vector ETV
attr interpolationmode sample-hold
attr source "count(packetPushed) - count(packetPopped) - count(packetRemoved) - count(packetDropped)"
attr title "queue length, vector"
vector 207 spineLeafNetwork.spine1.eth[3].mac.queue packetPopped:vector(packetBytes) ETV
attr interpolationmode none
attr title "packet popped, vector(packetBytes)"
vector 208 spineLeafNetwork.spine1.eth[3].mac.queue queueingTime:vector ETV
attr interpolationmode none
attr source queueingTime(packetPopped)
attr title "queueing times, vector"
attr unit s
vector 209 spineLeafNetwork.spine1.eth[3].mac txPk:vector(packetBytes) ETV
attr interpolationmode none
attr source packetSentToLower
attr title "packets transmitted, vector(packetBytes)"
vector 210 spineLeafNetwork.leaf4.eth[0].mac rxPkOk:vector(packetBytes) ETV
attr interpolationmode none
attr source rxPkOk
attr title "packets received OK, vector(packetBytes)"
vector 211 spineLeafNetwork.leaf4.eth[0].mac passedUpPk:vector(packetBytes) ETV
attr interpolationmode none
attr source packetSentToUpper
attr title "packets passed to higher layer, vector(packetBytes)"
vector 212 spineLeafNetwork.leaf4.eth[0].encap decapPk:vector(packetBytes) ETV
attr interpolationmode none
attr source decapPk
attr title "packets decapsulated, vector(packetBytes)"
vector 213 spineLeafNetwork.leaf4.eth[0].encap encapPk:vector(packetBytes) ETV
attr interpolationmode none
attr source encapPk
attr title "packets encapsulated, vector(packetBytes)"
vector 214 spineLeafNetwork.leaf4.eth[0].mac packetReceivedFromUpper:vector(packetBytes) ETV
attr interpolationmode none
attr source packetReceivedFromUpper
attr title "packet bytes from higher layer, vector(packetBytes)"
vector 215 spineLeafNetwork.leaf4.eth[0].mac.queue packetPushed:vector(packetBytes) ETV
attr interpolationmode none
attr title "packet pushed, vector(packetBytes)"
vector 216 spineLeafNetwork.leaf4.eth[0].mac.queue queueLength:vector ETV
attr interpolationmode sample-hold
attr source "count(packetPushed) - count(packetPopped) - count(packetRemoved) - count(packetDropped)"
attr title "queue length, vector"
vector 217 spineLeafNetwork.leaf4.eth[0].mac.queue packetPopped:vector(packetBytes) ETV
attr interpolationmode none
attr title "packet popped, vector(packetBytes)"
vector 218 spineLeafNetwork.leaf4.eth[0].mac.queue queueingTime:vector ETV
attr interpolationmode none
attr source queueingTime(packetPopped)
attr title "queueing times, vector"
attr unit s
vector 219 spineLeafNetwork.leaf4.eth[0].mac txPk:vector(packetBytes) ETV
attr interpolationmode none
attr source packetSentToLower
attr title "packets transmitted, vector(packetBytes)"
vector 220 spineLeafNetwork.spine1.eth[3].mac rxPkOk:vector(packetBytes) ETV
attr interpolationmode none
attr source rxPkOk
attr title "packets received OK, vector(packetBytes)"
vector 221 spineLeafNetwork.spine1.eth[3].mac passedUpPk:vector(packetBytes) ETV
attr interpolationmode none
attr source packetSentToUpper
attr title "packets passed to higher layer, vector(packetBytes)"
vector 222 spineLeafNetwork.spine1.eth[3].encap decapPk:vector(packetBytes) ETV
attr interpolationmode none
attr source decapPk
attr title "packets decapsulated, vector(packetBytes)"
vector 223 spineLeafNetwork.spine3.eth[0].encap encapPk:vector(packetBytes) ETV
attr interpolationmode none
attr source encapPk
attr title "packets encapsulated, vector(packetBytes)"
vector 224 spineLeafNetwork.spine3.eth[0].mac packetReceivedFromUpper:vector(packetBytes) ETV
attr interpolationmode none
attr source packetReceivedFromUpper
attr title "packet bytes from higher layer, vector(packetBytes)"
vector 225 spineLeafNetwork.spine3.eth[0].mac.queue packetPushed:vector(packetBytes) ETV
attr interpolationmode none
attr title "packet pushed, vector(packetBytes)"
vector 226 spineLeafNetwork.spine3.eth[0].mac.queue queueLength:vector ETV
attr interpolationmode sample-hold
attr source "count(packetPushed) - count(packetPopped) - count(packetRemoved) - count(packetDropped)"
attr title "queue length, vector"
vector 227 spineLeafNetwork.spine3.eth[0].mac.queue packetPopped:vector(packetBytes) ETV
attr interpolationmode none
attr title "packet popped, vector(packetBytes)"
vector 228 spineLeafNetwork.spine3.eth[0].mac.queue queueingTime:vector ETV
attr interpolationmode none
attr source queueingTime(packetPopped)
attr title "queueing times, vector"
attr unit s
vector 229 spineLeafNetwork.spine3.eth[0].mac txPk:vector(packetBytes) ETV
attr interpolationmode none
attr source packetSentToLower
attr title "packets transmitted, vector(packetBytes)"
vector 230 spineLeafNetwork.leaf1.eth[2].mac rxPkOk:vector(packetBytes) ETV
attr interpolationmode none
attr source rxPkOk
attr title "packets received OK, vector(packetBytes)"
vector 231 spineLeafNetwork.leaf1.eth[2].mac passedUpPk:vector(packetBytes) ETV
attr interpolationmode none
attr source packetSentToUpper
attr title "packets passed to higher layer, vector(packetBytes)"
vector 232 spineLeafNetwork.leaf1.eth[2].encap decapPk:vector(packetBytes) ETV
attr interpolationmode none
attr source decapPk
attr title "packets decapsulated, vector(packetBytes)"
vector 233 spineLeafNetwork.leaf1.eth[2].encap encapPk:vector(packetBytes) ETV
attr interpolationmode none
attr source encapPk
attr title "packets encapsulated, vector(packetBytes)"
vector 234 spineLeafNetwork.leaf1.eth[2].mac packetReceivedFromUpper:vector(packetBytes) ETV
attr interpolationmode none
attr source packetReceivedFromUpper
attr title "packet bytes from higher layer, vector(packetBytes)"
vector 235 spineLeafNetwork.leaf1.eth[2].mac.queue packetPushed:vector(packetBytes) ETV
attr interpolationmode none
attr title "packet pushed, vector(packetBytes)"
vector 236 spineLeafNetwork.leaf1.eth[2].mac.queue queueLength:vector ETV
attr interpolationmode sample-hold
attr source "count(packetPushed) - count(packetPopped) - count(packetRemoved) - count(packetDropped)"
attr title "queue length, vector"
vector 237 spineLeafNetwork.leaf1.eth[2].mac.queue packetPopped:vector(packetBytes) ETV
attr interpolationmode none
attr title "packet popped, vector(packetBytes)"
vector 238 spineLeafNetwork.leaf1.eth[2].mac.queue queueingTime:vector ETV
attr interpolationmode none
attr source queueingTime(packetPopped)
attr title "queueing times, vector"
attr unit s
vector 239 spineLeafNetwork.leaf1.eth[2].mac txPk:vector(packetBytes) ETV
attr interpolationmode none
attr source packetSentToLower
attr title "packets transmitted, vector(packetBytes)"
vector 240 spineLeafNetwork.spine3.eth[0].mac rxPkOk:vector(packetBytes) ETV
attr interpolationmode none
attr source rxPkOk
attr title "packets received OK, vector(packetBytes)"
vector 241 spineLeafNetwork.spine3.eth[0].mac passedUpPk:vector(packetBytes) ETV
attr interpolationmode none
attr source packetSentToUpper
attr title "packets passed to higher layer, vector(packetBytes)"
vector 242 spineLeafNetwork.spine3.eth[0].encap decapPk:vector(packetBytes) ETV
attr interpolationmode none
attr source decapPk
attr title "packets decapsulated, vector(packetBytes)"
vector 243 spineLeafNetwork.H2.app[0] pingRxSeq:vector ETV
attr interpolationmode none
attr title "ping rx seq, vector"
vector 244 spineLeafNetwork.H2.app[0] rtt:vector ETV
attr interpolationmode none
attr title "ping round-trip time, vector"
attr unit s
vector 245 spineLeafNetwork.H9.app[0] pingTxSeq:vector ETV
attr interpolationmode none
attr title "ping tx seq, vector"
vector 246 spineLeafNetwork.H9.ipv4.arp arpRequestSent:vector(packetBytes) ETV
attr source arpRequestSent
attr title "ARP request sent, vector(packetBytes)"
vector 247 spineLeafNetwork.H9.eth[0].encap encapPk:vector(packetBytes) ETV
attr interpolationmode none
attr source encapPk
attr title "packets encapsulated, vector(packetBytes)"
vector 248 spineLeafNetwork.H9.eth[0].mac packetReceivedFromUpper:vector(packetBytes) ETV
attr interpolationmode none
attr source packetReceivedFromUpper
attr title "packet bytes from higher layer, vector(packetBytes)"
vector 249 spineLeafNetwork.H9.eth[0].mac.queue packetPushed:vector(packetBytes) ETV
attr interpolationmode none
attr title "packet pushed, vector(packetBytes)"
vector 250 spineLeafNetwork.H9.eth[0].mac.queue queueLength:vector ETV
attr interpolationmode sample-hold
attr source "count(packetPushed) - count(packetPopped) - count(packetRemoved) - count(packetDropped)"
attr title "queue length, vector"
vector 251 spineLeafNetwork.H9.eth[0].mac.queue packetPopped:vector(packetBytes) ETV
attr interpolationmode none
attr title "packet popped, vector(packetBytes)"
vector 252 spineLeafNetwork.H9.eth[0].mac.queue queueingTime:vector ETV
attr interpolationmode none
attr source queueingTime(packetPopped)
attr title "queueing times, vector"
attr unit s
vector 253 spineLeafNetwork.H9.eth[0].mac txPk:vector(packetBytes) ETV
attr interpolationmode none
attr source packetSentToLower
attr title "packets transmitted, vector(packetBytes)"
vector 254 spineLeafNetwork.leaf3.eth[5].mac rxPkOk:vector(packetBytes) ETV
attr interpolationmode none
attr source rxPkOk
attr title "packets received OK, vector(packetBytes)"
vector 255 spineLeafNetwork.leaf3.eth[5].mac passedUpPk:vector(packetBytes) ETV
attr interpolationmode none
attr source packetSentToUpper
attr title "packets passed to higher layer, vector(packetBytes)"
vector 256 spineLeafNetwork.leaf3.eth[5].encap decapPk:vector(packetBytes) ETV
attr interpolationmode none
attr source decapPk
attr title "packets decapsulated, vector(packetBytes)"
vector 257 spineLeafNetwork.leaf3.ipv4.arp arpReplySent:vector(packetBytes) ETV
attr source arpReplySent
attr title "ARP replies sent, vector(packetBytes)"
vector 258 spineLeafNetwork.leaf3.eth[5].encap encapPk:vector(packetBytes) ETV
attr interpolationmode none
attr source encapPk
attr title "packets encapsulated, vector(packetBytes)"
vector 259 spineLeafNetwork.leaf3.eth[5].mac packetReceivedFromUpper:vector(packetBytes) ETV
attr interpolationmode none
attr source packetReceivedFromUpper
attr title "packet bytes from higher layer, vector(packetBytes)"
vector 260 spineLeafNetwork.leaf3.eth[5].mac.queue packetPushed:vector(packetBytes) ETV
attr interpolationmode none
attr title "packet pushed, vector(packetBytes)"
vector 261 spineLeafNetwork.leaf3.eth[5].mac.queue queueLength:vector ETV
attr interpolationmode sample-hold
attr source "count(packetPushed) - count(packetPopped) - count(packetRemoved) - count(packetDropped)"
attr title "queue length, vector"
vector 262 spineLeafNetwork.leaf3.eth[5].mac.queue packetPopped:vector(packetBytes) ETV
attr interpolationmode none
attr title "packet popped, vector(packetBytes)"
vector 263 spineLeafNetwork.leaf3.eth[5].mac.queue queueingTime:vector ETV
attr interpolationmode none
attr source queueingTime(packetPopped)
attr title "queueing times, vector"
attr unit s
vector 264 spineLeafNetwork.leaf3.eth[5].mac txPk:vector(packetBytes) ETV
attr interpolationmode none
attr source packetSentToLower
attr title "packets transmitted, vector(packetBytes)"
vector 265 spineLeafNetwork.H9.eth[0].mac rxPkOk:vector(packetBytes) ETV
attr interpolationmode none
attr source rxPkOk
attr title "packets received OK, vector(packetBytes)"
vector 266 spineLeafNetwork.H9.eth[0].mac passedUpPk:vector(packetBytes) ETV
attr interpolationmode none
attr source packetSentToUpper
attr title "packets passed to higher layer, vector(packetBytes)"
vector 267 spineLeafNetwork.H9.eth[0].encap decapPk:vector(packetBytes) ETV
attr interpolationmode none
attr source decapPk
attr title "packets decapsulated, vector(packetBytes)"
vector 268 spineLeafNetwork.leaf3.ipv4.arp arpRequestSent:vector(packetBytes) ETV
attr source arpRequestSent
attr title "ARP request sent, vector(packetBytes)"
vector 269 spineLeafNetwork.leaf3.eth[2].encap encapPk:vector(packetBytes) ETV
attr interpolationmode none
attr source encapPk
attr title "packets encapsulated, vector(packetBytes)"
vector 270 spineLeafNetwork.leaf3.eth[2].mac packetReceivedFromUpper:vector(packetBytes) ETV
attr interpolationmode none
attr source packetReceivedFromUpper
attr title "packet bytes from higher layer, vector(packetBytes)"
vector 271 spineLeafNetwork.leaf3.eth[2].mac.queue packetPushed:vector(packetBytes) ETV
attr interpolationmode none
attr title "packet pushed, vector(packetBytes)"
vector 272 spineLeafNetwork.leaf3.eth[2].mac.queue queueLength:vector ETV
attr interpolationmode sample-hold
attr source "count(packetPushed) - count(packetPopped) - count(packetRemoved) - count(packetDropped)"
attr title "queue length, vector"
vector 273 spineLeafNetwork.leaf3.eth[2].mac.queue packetPopped:vector(packetBytes) ETV
attr interpolationmode none
attr title "packet popped, vector(packetBytes)"
vector 274 spineLeafNetwork.leaf3.eth[2].mac.queue queueingTime:vector ETV
attr interpolationmode none
attr source queueingTime(packetPopped)
attr title "queueing times, vector"
attr unit s
vector 275 spineLeafNetwork.leaf3.eth[2].mac txPk:vector(packetBytes) ETV
attr interpolationmode none
attr source packetSentToLower
attr title "packets transmitted, vector(packetBytes)"
vector 276 spineLeafNetwork.spine3.eth[2].mac rxPkOk:vector(packetBytes) ETV
attr interpolationmode none
attr source rxPkOk
attr title "packets received OK, vector(packetBytes)"
vector 277 spineLeafNetwork.spine3.eth[2].mac passedUpPk:vector(packetBytes) ETV
attr interpolationmode none
attr source packetSentToUpper
attr title "packets passed to higher layer, vector(packetBytes)"
vector 278 spineLeafNetwork.spine3.eth[2].encap decapPk:vector(packetBytes) ETV
attr interpolationmode none
attr source decapPk
attr title "packets decapsulated, vector(packetBytes)"
vector 279 spineLeafNetwork.spine3.eth[2].encap encapPk:vector(packetBytes) ETV
attr interpolationmode none
attr source encapPk
attr title "packets encapsulated, vector(packetBytes)"
vector 280 spineLeafNetwork.spine3.eth[2].mac packetReceivedFromUpper:vector(packetBytes) ETV
attr interpolationmode none
attr source packetReceivedFromUpper
attr title "packet bytes from higher layer, vector(packetBytes)"
vector 281 spineLeafNetwork.spine3.eth[2].mac.queue packetPushed:vector(packetBytes) ETV
attr interpolationmode none
attr title "packet pushed, vector(packetBytes)"
vector 282 spineLeafNetwork.spine3.eth[2].mac.queue queueLength:vector ETV
attr interpolationmode sample-hold
attr source "count(packetPushed) - count(packetPopped) - count(packetRemoved) - count(packetDropped)"
attr title "queue length, vector"
vector 283 spineLeafNetwork.spine3.eth[2].mac.queue packetPopped:vector(packetBytes) ETV
attr interpolationmode none
attr title "packet popped, vector(packetBytes)"
vector 284 spineLeafNetwork.spine3.eth[2].mac.queue queueingTime:vector ETV
attr interpolationmode none
attr source queueingTime(packetPopped)
attr title "queueing times, vector"
attr unit s
vector 285 spineLeafNetwork.spine3.eth[2].mac txPk:vector(packetBytes) ETV
attr interpolationmode none
attr source packetSentToLower
attr title "packets transmitted, vector(packetBytes)"
vector 286 spineLeafNetwork.leaf3.eth[2].mac rxPkOk:vector(packetBytes) ETV
attr interpolationmode none
attr source rxPkOk
attr title "packets received OK, vector(packetBytes)"
vector 287 spineLeafNetwork.leaf3.eth[2].mac passedUpPk:vector(packetBytes) ETV
attr interpolationmode none
attr source packetSentToUpper
attr title "packets passed to higher layer, vector(packetBytes)"
vector 288 spineLeafNetwork.leaf3.eth[2].encap decapPk:vector(packetBytes) ETV
attr interpolationmode none
attr source decapPk
attr title "packets decapsulated, vector(packetBytes)"
vector 289 spineLeafNetwork.H9.app[0] pingRxSeq:vector ETV
attr interpolationmode none
attr title "ping rx seq, vector"
vector 290 spineLeafNetwork.H9.app[0] rtt:vector ETV
attr interpolationmode none
attr title "ping round-trip time, vector"
attr unit s
vector 291 spineLeafNetwork.H10.app[0] pingTxSeq:vector ETV
attr interpolationmode none
attr title "ping tx seq, vector"
vector 292 spineLeafNetwork.H10.lo[0].lo rcvdPkFromHl:vector(packetBytes) ETV
attr interpolationmode none
attr source packetReceivedFromUpper
attr title "packets received from higher layer, vector(packetBytes)"
vector 293 spineLeafNetwork.H10.lo[0].lo passedUpPk:vector(packetBytes) ETV
attr interpolationmode none
attr source packetSentToUpper
attr title "packets passed to higher layer, vector(packetBytes)"
vector 294 spineLeafNetwork.H10.app[0] pingRxSeq:vector ETV
attr interpolationmode none
attr title "ping rx seq, vector"
vector 295 spineLeafNetwork.H1.app[0] pingTxSeq:vector ETV
attr interpolationmode none
attr title "ping tx seq, vector"
vector 296 spineLeafNetwork.H1.ipv4.arp arpRequestSent:vector(packetBytes) ETV
attr source arpRequestSent
attr title "ARP request sent, vector(packetBytes)"
vector 297 spineLeafNetwork.H1.eth[0].encap encapPk:vector(packetBytes) ETV
attr interpolationmode none
attr source encapPk
attr title "packets encapsulated, vector(packetBytes)"
vector 298 spineLeafNetwork.H1.eth[0].mac packetReceivedFromUpper:vector(packetBytes) ETV
attr interpolationmode none
attr source packetReceivedFromUpper
attr title "packet bytes from higher layer, vector(packetBytes)"
vector 299 spineLeafNetwork.H1.eth[0].mac.queue packetPushed:vector(packetBytes) ETV
attr interpolationmode none
attr title "packet pushed, vector(packetBytes)"
vector 300 spineLeafNetwork.H1.eth[0].mac.queue queueLength:vector ETV
attr interpolationmode sample-hold
attr source "count(packetPushed) - count(packetPopped) - count(packetRemoved) - count(packetDropped)"
attr title "queue length, vector"
vector 301 spineLeafNetwork.H1.eth[0].mac.queue packetPopped:vector(packetBytes) ETV
attr interpolationmode none
attr title "packet popped, vector(packetBytes)"
vector 302 spineLeafNetwork.H1.eth[0].mac.queue queueingTime:vector ETV
attr interpolationmode none
attr source queueingTime(packetPopped)
attr title "queueing times, vector"
attr unit s
vector 303 spineLeafNetwork.H1.eth[0].mac txPk:vector(packetBytes) ETV
attr interpolationmode none
attr source packetSentToLower
attr title "packets transmitted, vector(packetBytes)"
vector 304 spineLeafNetwork.leaf1.eth[3].mac rxPkOk:vector(packetBytes) ETV
attr interpolationmode none
attr source rxPkOk
attr title "packets received OK, vector(packetBytes)"
vector 305 spineLeafNetwork.leaf1.eth[3].mac passedUpPk:vector(packetBytes) ETV
attr interpolationmode none
attr source packetSentToUpper
attr title "packets passed to higher layer, vector(packetBytes)"
vector 306 spineLeafNetwork.leaf1.eth[3].encap decapPk:vector(packetBytes) ETV
attr interpolationmode none
attr source decapPk
attr title "packets decapsulated, vector(packetBytes)"
vector 307 spineLeafNetwork.leaf1.eth[3].encap encapPk:vector(packetBytes) ETV
attr interpolationmode none
attr source encapPk
attr title "packets encapsulated, vector(packetBytes)"
vector 308 spineLeafNetwork.leaf1.eth[3].mac packetReceivedFromUpper:vector(packetBytes) ETV
attr interpolationmode none
attr source packetReceivedFromUpper
attr title "packet bytes from higher layer, vector(packetBytes)"
vector 309 spineLeafNetwork.leaf1.eth[3].mac.queue packetPushed:vector(packetBytes) ETV
attr interpolationmode none
attr title "packet pushed, vector(packetBytes)"
vector 310 spineLeafNetwork.leaf1.eth[3].mac.queue queueLength:vector ETV
attr interpolationmode sample-hold
attr source "count(packetPushed) - count(packetPopped) - count(packetRemoved) - count(packetDropped)"
attr title "queue length, vector"
vector 311 spineLeafNetwork.leaf1.eth[3].mac.queue packetPopped:vector(packetBytes) ETV
attr interpolationmode none
attr title "packet popped, vector(packetBytes)"
vector 312 spineLeafNetwork.leaf1.eth[3].mac.queue queueingTime:vector ETV
attr interpolationmode none
attr source queueingTime(packetPopped)
attr title "queueing times, vector"
attr unit s
vector 313 spineLeafNetwork.leaf1.eth[3].mac txPk:vector(packetBytes) ETV
attr interpolationmode none
attr source packetSentToLower
attr title "packets transmitted, vector(packetBytes)"
vector 314 spineLeafNetwork.H1.eth[0].mac rxPkOk:vector(packetBytes) ETV
attr interpolationmode none
attr source rxPkOk
attr title "packets received OK, vector(packetBytes)"
vector 315 spineLeafNetwork.H1.eth[0].mac passedUpPk:vector(packetBytes) ETV
attr interpolationmode none
attr source packetSentToUpper
attr title "packets passed to higher layer, vector(packetBytes)"
vector 316 spineLeafNetwork.H1.eth[0].encap decapPk:vector(packetBytes) ETV
attr interpolationmode none
attr source decapPk
attr title "packets decapsulated, vector(packetBytes)"
vector 317 spineLeafNetwork.leaf1.eth[1].encap encapPk:vector(packetBytes) ETV
attr interpolationmode none
attr source encapPk
attr title "packets encapsulated, vector(packetBytes)"
vector 318 spineLeafNetwork.leaf1.eth[1].mac packetReceivedFromUpper:vector(packetBytes) ETV
attr interpolationmode none
attr source packetReceivedFromUpper
attr title "packet bytes from higher layer, vector(packetBytes)"
vector 319 spineLeafNetwork.leaf1.eth[1].mac.queue packetPushed:vector(packetBytes) ETV
attr interpolationmode none
attr title "packet pushed, vector(packetBytes)"
vector 320 spineLeafNetwork.leaf1.eth[1].mac.queue queueLength:vector ETV
attr interpolationmode sample-hold
attr source "count(packetPushed) - count(packetPopped) - count(packetRemoved) - count(packetDropped)"
attr title "queue length, vector"
vector 321 spineLeafNetwork.leaf1.eth[1].mac.queue packetPopped:vector(packetBytes) ETV
attr interpolationmode none
attr title "packet popped, vector(packetBytes)"
vector 322 spineLeafNetwork.leaf1.eth[1].mac.queue queueingTime:vector ETV
attr interpolationmode none
attr source queueingTime(packetPopped)
attr title "queueing times, vector"
attr unit s
vector 323 spineLeafNetwork.leaf1.eth[1].mac txPk:vector(packetBytes) ETV
attr interpolationmode none
attr source packetSentToLower
attr title "packets transmitted, vector(packetBytes)"
vector 324 spineLeafNetwork.spine2.eth[0].mac rxPkOk:vector(packetBytes) ETV
attr interpolationmode none
attr source rxPkOk
attr title "packets received OK, vector(packetBytes)"
vector 325 spineLeafNetwork.spine2.eth[0].mac passedUpPk:vector(packetBytes) ETV
attr interpolationmode none
attr source packetSentToUpper
attr title "packets passed to higher layer, vector(packetBytes)"
vector 326 spineLeafNetwork.spine2.eth[0].encap decapPk:vector(packetBytes) ETV
attr interpolationmode none
attr source decapPk
attr title "packets decapsulated, vector(packetBytes)"
vector 327 spineLeafNetwork.spine2.eth[0].encap encapPk:vector(packetBytes) ETV
attr interpolationmode none
attr source encapPk
attr title "packets encapsulated, vector(packetBytes)"
vector 328 spineLeafNetwork.spine2.eth[0].mac packetReceivedFromUpper:vector(packetBytes) ETV
attr interpolationmode none
attr source packetReceivedFromUpper
attr title "packet bytes from higher layer, vector(packetBytes)"
vector 329 spineLeafNetwork.spine2.eth[0].mac.queue packetPushed:vector(packetBytes) ETV
attr interpolationmode none
attr title "packet pushed, vector(packetBytes)"
vector 330 spineLeafNetwork.spine2.eth[0].mac.queue queueLength:vector ETV
attr interpolationmode sample-hold
attr source "count(packetPushed) - count(packetPopped) - count(packetRemoved) - count(packetDropped)"
attr title "queue length, vector"
vector 331 spineLeafNetwork.spine2.eth[0].mac.queue packetPopped:vector(packetBytes) ETV
attr interpolationmode none
attr title "packet popped, vector(packetBytes)"
vector 332 spineLeafNetwork.spine2.eth[0].mac.queue queueingTime:vector ETV
attr interpolationmode none
attr source queueingTime(packetPopped)
attr title "queueing times, vector"
attr unit s
vector 333 spineLeafNetwork.spine2.eth[0].mac txPk:vector(packetBytes) ETV
attr interpolationmode none
attr source packetSentToLower
attr title "packets transmitted, vector(packetBytes)"
vector 334 spineLeafNetwork.leaf1.eth[1].mac rxPkOk:vector(packetBytes) ETV
attr interpolationmode none
attr source rxPkOk
attr title "packets received OK, vector(packetBytes)"
vector 335 spineLeafNetwork.leaf1.eth[1].mac passedUpPk:vector(packetBytes) ETV
attr interpolationmode none
attr source packetSentToUpper
attr title "packets passed to higher layer, vector(packetBytes)"
vector 336 spineLeafNetwork.leaf1.eth[1].encap decapPk:vector(packetBytes) ETV
attr interpolationmode none
attr source decapPk
attr title "packets decapsulated, vector(packetBytes)"
vector 337 spineLeafNetwork.H1.app[0] pingRxSeq:vector ETV
attr interpolationmode none
attr title "ping rx seq, vector"
vector 338 spineLeafNetwork.H1.app[0] rtt:vector ETV
attr interpolationmode none
attr title "ping round-trip time, vector"
attr unit s
vector 339 spineLeafNetwork.H3.app[0] pingTxSeq:vector ETV
attr interpolationmode none
attr title "ping tx seq, vector"
vector 340 spineLeafNetwork.H3.ipv4.arp arpRequestSent:vector(packetBytes) ETV
attr source arpRequestSent
attr title "ARP request sent, vector(packetBytes)"
vector 341 spineLeafNetwork.H3.eth[0].encap encapPk:vector(packetBytes) ETV
attr interpolationmode none
attr source encapPk
attr title "packets encapsulated, vector(packetBytes)"
vector 342 spineLeafNetwork.H3.eth[0].mac packetReceivedFromUpper:vector(packetBytes) ETV
attr interpolationmode none
attr source packetReceivedFromUpper
attr title "packet bytes from higher layer, vector(packetBytes)"
vector 343 spineLeafNetwork.H3.eth[0].mac.queue packetPushed:vector(packetBytes) ETV
attr interpolationmode none
attr title "packet pushed, vector(packetBytes)"
vector 344 spineLeafNetwork.H3.eth[0].mac.queue queueLength:vector ETV
attr interpolationmode sample-hold
attr source "count(packetPushed) - count(packetPopped) - count(packetRemoved) - count(packetDropped)"
attr title "queue length, vector"
vector 345 spineLeafNetwork.H3.eth[0].mac.queue packetPopped:vector(packetBytes) ETV
attr interpolationmode none
attr title "packet popped, vector(packetBytes)"
vector 346 spineLeafNetwork.H3.eth[0].mac.queue queueingTime:vector ETV
attr interpolationmode none
attr source queueingTime(packetPopped)
attr title "queueing times, vector"
attr unit s
vector 347 spineLeafNetwork.H3.eth[0].mac txPk:vector(packetBytes) ETV
attr interpolationmode none
attr source packetSentToLower
attr title "packets transmitted, vector(packetBytes)"
vector 348 spineLeafNetwork.leaf1.eth[5].mac rxPkOk:vector(packetBytes) ETV
attr interpolationmode none
attr source rxPkOk
attr title "packets received OK, vector(packetBytes)"
vector 349 spineLeafNetwork.leaf1.eth[5].mac passedUpPk:vector(packetBytes) ETV
attr interpolationmode none
attr source packetSentToUpper
attr title "packets passed to higher layer, vector(packetBytes)"
vector 350 spineLeafNetwork.leaf1.eth[5].encap decapPk:vector(packetBytes) ETV
attr interpolationmode none
attr source decapPk
attr title "packets decapsulated, vector(packetBytes)"
vector 351 spineLeafNetwork.leaf1.eth[5].encap encapPk:vector(packetBytes) ETV
attr interpolationmode none
attr source encapPk
attr title "packets encapsulated, vector(packetBytes)"
vector 352 spineLeafNetwork.leaf1.eth[5].mac packetReceivedFromUpper:vector(packetBytes) ETV
attr interpolationmode none
attr source packetReceivedFromUpper
attr title "packet bytes from higher layer, vector(packetBytes)"
vector 353 spineLeafNetwork.leaf1.eth[5].mac.queue packetPushed:vector(packetBytes) ETV
attr interpolationmode none
attr title "packet pushed, vector(packetBytes)"
vector 354 spineLeafNetwork.leaf1.eth[5].mac.queue queueLength:vector ETV
attr interpolationmode sample-hold
attr source "count(packetPushed) - count(packetPopped) - count(packetRemoved) - count(packetDropped)"
attr title "queue length, vector"
vector 355 spineLeafNetwork.leaf1.eth[5].mac.queue packetPopped:vector(packetBytes) ETV
attr interpolationmode none
attr title "packet popped, vector(packetBytes)"
vector 356 spineLeafNetwork.leaf1.eth[5].mac.queue queueingTime:vector ETV
attr interpolationmode none
attr source queueingTime(packetPopped)
attr title "queueing times, vector"
attr unit s
vector 357 spineLeafNetwork.leaf1.eth[5].mac txPk:vector(packetBytes) ETV
attr interpolationmode none
attr source packetSentToLower
attr title "packets transmitted, vector(packetBytes)"
vector 358 spineLeafNetwork.H3.eth[0].mac rxPkOk:vector(packetBytes) ETV
attr interpolationmode none
attr source rxPkOk
attr title "packets received OK, vector(packetBytes)"
vector 359 spineLeafNetwork.H3.eth[0].mac passedUpPk:vector(packetBytes) ETV
attr interpolationmode none
attr source packetSentToUpper
attr title "packets passed to higher layer, vector(packetBytes)"
vector 360 spineLeafNetwork.H3.eth[0].encap decapPk:vector(packetBytes) ETV
attr interpolationmode none
attr source decapPk
attr title "packets decapsulated, vector(packetBytes)"
vector 361 spineLeafNetwork.H3.app[0] pingRxSeq:vector ETV
attr interpolationmode none
attr title "ping rx seq, vector"
vector 362 spineLeafNetwork.H3.app[0] rtt:vector ETV
attr interpolationmode none
attr title "ping round-trip time, vector"
attr unit s
vector 363 spineLeafNetwork.H7.app[0] pingTxSeq:vector ETV
attr interpolationmode none
attr title "ping tx seq, vector"
vector 364 spineLeafNetwork.H7.ipv4.arp arpRequestSent:vector(packetBytes) ETV
attr source arpRequestSent
attr title "ARP request sent, vector(packetBytes)"
vector 365 spineLeafNetwork.H7.eth[0].encap encapPk:vector(packetBytes) ETV
attr interpolationmode none
attr source encapPk
attr title "packets encapsulated, vector(packetBytes)"
vector 366 spineLeafNetwork.H7.eth[0].mac packetReceivedFromUpper:vector(packetBytes) ETV
attr interpolationmode none
attr source packetReceivedFromUpper
attr title "packet bytes from higher layer, vector(packetBytes)"
vector 367 spineLeafNetwork.H7.eth[0].mac.queue packetPushed:vector(packetBytes) ETV
attr interpolationmode none
attr title "packet pushed, vector(packetBytes)"
vector 368 spineLeafNetwork.H7.eth[0].mac.queue queueLength:vector ETV
attr interpolationmode sample-hold
attr source "count(packetPushed) - count(packetPopped) - count(packetRemoved) - count(packetDropped)"
attr title "queue length, vector"
vector 369 spineLeafNetwork.H7.eth[0].mac.queue packetPopped:vector(packetBytes) ETV
attr interpolationmode none
attr title "packet popped, vector(packetBytes)"
vector 370 spineLeafNetwork.H7.eth[0].mac.queue queueingTime:vector ETV
attr interpolationmode none
attr source queueingTime(packetPopped)
attr title "queueing times, vector"
attr unit s
vector 371 spineLeafNetwork.H7.eth[0].mac txPk:vector(packetBytes) ETV
attr interpolationmode none
attr source packetSentToLower
attr title "packets transmitted, vector(packetBytes)"
vector 372 spineLeafNetwork.leaf3.eth[3].mac rxPkOk:vector(packetBytes) ETV
attr interpolationmode none
attr source rxPkOk
attr title "packets received OK, vector(packetBytes)"
vector 373 spineLeafNetwork.leaf3.eth[3].mac passedUpPk:vector(packetBytes) ETV
attr interpolationmode none
attr source packetSentToUpper
attr title "packets passed to higher layer, vector(packetBytes)"
vector 374 spineLeafNetwork.leaf3.eth[3].encap decapPk:vector(packetBytes) ETV
attr interpolationmode none
attr source decapPk
attr title "packets decapsulated, vector(packetBytes)"
vector 375 spineLeafNetwork.leaf3.eth[3].encap encapPk:vector(packetBytes) ETV
attr interpolationmode none
attr source encapPk
attr title "packets encapsulated, vector(packetBytes)"
vector 376 spineLeafNetwork.leaf3.eth[3].mac packetReceivedFromUpper:vector(packetBytes) ETV
attr interpolationmode none
attr source packetReceivedFromUpper
attr title "packet bytes from higher layer, vector(packetBytes)"
vector 377 spineLeafNetwork.leaf3.eth[3].mac.queue packetPushed:vector(packetBytes) ETV
attr interpolationmode none
attr title "packet pushed, vector(packetBytes)"
vector 378 spineLeafNetwork.leaf3.eth[3].mac.queue queueLength:vector ETV
attr interpolationmode sample-hold
attr source "count(packetPushed) - count(packetPopped) - count(packetRemoved) - count(packetDropped)"
attr title "queue length, vector"
vector 379 spineLeafNetwork.leaf3.eth[3].mac.queue packetPopped:vector(packetBytes) ETV
attr interpolationmode none
attr title "packet popped, vector(packetBytes)"
vector 380 spineLeafNetwork.leaf3.eth[3].mac.queue queueingTime:vector ETV
attr interpolationmode none
attr source queueingTime(packetPopped)
attr title "queueing times, vector"
attr unit s
vector 381 spineLeafNetwork.leaf3.eth[3].mac txPk:vector(packetBytes) ETV
attr interpolationmode none
attr source packetSentToLower
attr title "packets transmitted, vector(packetBytes)"
vector 382 spineLeafNetwork.H7.eth[0].mac rxPkOk:vector(packetBytes) ETV
attr interpolationmode none
attr source rxPkOk
attr title "packets received OK, vector(packetBytes)"
vector 383 spineLeafNetwork.H7.eth[0].mac passedUpPk:vector(packetBytes) ETV
attr interpolationmode none
attr source packetSentToUpper
attr title "packets passed to higher layer, vector(packetBytes)"
vector 384 spineLeafNetwork.H7.eth[0].encap decapPk:vector(packetBytes) ETV
attr interpolationmode none
attr source decapPk
attr title "packets decapsulated, vector(packetBytes)"
vector 385 spineLeafNetwork.leaf3.eth[1].encap encapPk:vector(packetBytes) ETV
attr interpolationmode none
attr source encapPk
attr title "packets encapsulated, vector(packetBytes)"
vector 386 spineLeafNetwork.leaf3.eth[1].mac packetReceivedFromUpper:vector(packetBytes) ETV
attr interpolationmode none
attr source packetReceivedFromUpper
attr title "packet bytes from higher layer, vector(packetBytes)"
vector 387 spineLeafNetwork.leaf3.eth[1].mac.queue packetPushed:vector(packetBytes) ETV
attr interpolationmode none
attr title "packet pushed, vector(packetBytes)"
vector 388 spineLeafNetwork.leaf3.eth[1].mac.queue queueLength:vector ETV
attr interpolationmode sample-hold
attr source "count(packetPushed) - count(packetPopped) - count(packetRemoved) - count(packetDropped)"
attr title "queue length, vector"
vector 389 spineLeafNetwork.leaf3.eth[1].mac.queue packetPopped:vector(packetBytes) ETV
attr interpolationmode none
attr title "packet popped, vector(packetBytes)"
vector 390 spineLeafNetwork.leaf3.eth[1].mac.queue queueingTime:vector ETV
attr interpolationmode none
attr source queueingTime(packetPopped)
attr title "queueing times, vector"
attr unit s
vector 391 spineLeafNetwork.leaf3.eth[1].mac txPk:vector(packetBytes) ETV
attr interpolationmode none
attr source packetSentToLower
attr title "packets transmitted, vector(packetBytes)"
vector 392 spineLeafNetwork.spine2.eth[2].mac rxPkOk:vector(packetBytes) ETV
attr interpolationmode none
attr source rxPkOk
attr title "packets received OK, vector(packetBytes)"
vector 393 spineLeafNetwork.spine2.eth[2].mac passedUpPk:vector(packetBytes) ETV
attr interpolationmode none
attr source packetSentToUpper
attr title "packets passed to higher layer, vector(packetBytes)"
vector 394 spineLeafNetwork.spine2.eth[2].encap decapPk:vector(packetBytes) ETV
attr interpolationmode none
attr source decapPk
attr title "packets decapsulated, vector(packetBytes)"
vector 395 spineLeafNetwork.spine2.eth[2].encap encapPk:vector(packetBytes) ETV
attr interpolationmode none
attr source encapPk
attr title "packets encapsulated, vector(packetBytes)"
vector 396 spineLeafNetwork.spine2.eth[2].mac packetReceivedFromUpper:vector(packetBytes) ETV
attr interpolationmode none
attr source packetReceivedFromUpper
attr title "packet bytes from higher layer, vector(packetBytes)"
vector 397 spineLeafNetwork.spine2.eth[2].mac.queue packetPushed:vector(packetBytes) ETV
attr interpolationmode none
attr title "packet pushed, vector(packetBytes)"
vector 398 spineLeafNetwork.spine2.eth[2].mac.queue queueLength:vector ETV
attr interpolationmode sample-hold
attr source "count(packetPushed) - count(packetPopped) - count(packetRemoved) - count(packetDropped)"
attr title "queue length, vector"
vector 399 spineLeafNetwork.spine2.eth[2].mac.queue packetPopped:vector(packetBytes) ETV
attr interpolationmode none
attr title "packet popped, vector(packetBytes)"
vector 400 spineLeafNetwork.spine2.eth[2].mac.queue queueingTime:vector ETV
attr interpolationmode none
attr source queueingTime(packetPopped)
attr title "queueing times, vector"
attr unit s
vector 401 spineLeafNetwork.spine2.eth[2].mac txPk:vector(packetBytes) ETV
attr interpolationmode none
attr source packetSentToLower
attr title "packets transmitted, vector(packetBytes)"
vector 402 spineLeafNetwork.leaf3.eth[1].mac rxPkOk:vector(packetBytes) ETV
attr interpolationmode none
attr source rxPkOk
attr title "packets received OK, vector(packetBytes)"
vector 403 spineLeafNetwork.leaf3.eth[1].mac passedUpPk:vector(packetBytes) ETV
attr interpolationmode none
attr source packetSentToUpper
attr title "packets passed to higher layer, vector(packetBytes)"
vector 404 spineLeafNetwork.leaf3.eth[1].encap decapPk:vector(packetBytes) ETV
attr interpolationmode none
attr source decapPk
attr title "packets decapsulated, vector(packetBytes)"
vector 405 spineLeafNetwork.H7.app[0] pingRxSeq:vector ETV
attr interpolationmode none
attr title "ping rx seq, vector"
vector 406 spineLeafNetwork.H7.app[0] rtt:vector ETV
attr interpolationmode none
attr title "ping round-trip time, vector"
attr unit s
vector 407 spineLeafNetwork.H5.app[0] pingTxSeq:vector ETV
attr interpolationmode none
attr title "ping tx seq, vector"
vector 408 spineLeafNetwork.H5.ipv4.arp arpRequestSent:vector(packetBytes) ETV
attr source arpRequestSent
attr title "ARP request sent, vector(packetBytes)"
vector 409 spineLeafNetwork.H5.eth[0].encap encapPk:vector(packetBytes) ETV
attr interpolationmode none
attr source encapPk
attr title "packets encapsulated, vector(packetBytes)"
vector 410 spineLeafNetwork.H5.eth[0].mac packetReceivedFromUpper:vector(packetBytes) ETV
attr interpolationmode none
attr source packetReceivedFromUpper
attr title "packet bytes from higher layer, vector(packetBytes)"
vector 411 spineLeafNetwork.H5.eth[0].mac.queue packetPushed:vector(packetBytes) ETV
attr interpolationmode none
attr title "packet pushed, vector(packetBytes)"
vector 412 spineLeafNetwork.H5.eth[0].mac.queue queueLength:vector ETV
attr interpolationmode sample-hold
attr source "count(packetPushed) - count(packetPopped) - count(packetRemoved) - count(packetDropped)"
attr title "queue length, vector"
vector 413 spineLeafNetwork.H5.eth[0].mac.queue packetPopped:vector(packetBytes) ETV
attr interpolationmode none
attr title "packet popped, vector(packetBytes)"
vector 414 spineLeafNetwork.H5.eth[0].mac.queue queueingTime:vector ETV
attr interpolationmode none
attr source queueingTime(packetPopped)
attr title "queueing times, vector"
attr unit s
vector 415 spineLeafNetwork.H5.eth[0].mac txPk:vector(packetBytes) ETV
attr interpolationmode none
attr source packetSentToLower
attr title "packets transmitted, vector(packetBytes)"
vector 416 spineLeafNetwork.leaf2.eth[4].mac rxPkOk:vector(packetBytes) ETV
attr interpolationmode none
attr source rxPkOk
attr title "packets received OK, vector(packetBytes)"
vector 417 spineLeafNetwork.leaf2.eth[4].mac passedUpPk:vector(packetBytes) ETV
attr interpolationmode none
attr source packetSentToUpper
attr title "packets passed to higher layer, vector(packetBytes)"
vector 418 spineLeafNetwork.leaf2.eth[4].encap decapPk:vector(packetBytes) ETV
attr interpolationmode none
attr source decapPk
attr title "packets decapsulated, vector(packetBytes)"
vector 419 spineLeafNetwork.leaf2.eth[4].encap encapPk:vector(packetBytes) ETV
attr interpolationmode none
attr source encapPk
attr title "packets encapsulated, vector(packetBytes)"
vector 420 spineLeafNetwork.leaf2.eth[4].mac packetReceivedFromUpper:vector(packetBytes) ETV
attr interpolationmode none
attr source packetReceivedFromUpper
attr title "packet bytes from higher layer, vector(packetBytes)"
vector 421 spineLeafNetwork.leaf2.eth[4].mac.queue packetPushed:vector(packetBytes) ETV
attr interpolationmode none
attr title "packet pushed, vector(packetBytes)"
vector 422 spineLeafNetwork.leaf2.eth[4].mac.queue queueLength:vector ETV
attr interpolationmode sample-hold
attr source "count(packetPushed) - count(packetPopped) - count(packetRemoved) - count(packetDropped)"
attr title "queue length, vector"
vector 423 spineLeafNetwork.leaf2.eth[4].mac.queue packetPopped:vector(packetBytes) ETV
attr interpolationmode none
attr title "packet popped, vector(packetBytes)"
vector 424 spineLeafNetwork.leaf2.eth[4].mac.queue queueingTime:vector ETV
attr interpolationmode none
attr source queueingTime(packetPopped)
attr title "queueing times, vector"
attr unit s
vector 425 spineLeafNetwork.leaf2.eth[4].mac txPk:vector(packetBytes) ETV
attr interpolationmode none
attr source packetSentToLower
[...]
435	3026	4.423716696788	102
435	4084	5.847313637257	102
435	5471	8.544945077383	102
435	5986	9.423716696788	102
435	6049	9.544945077383	102
435	6438	9.847313637257	102
436	900	0.847333887257	64
436	914	0.847348547257	102
436	1052	1.423675266788	64
436	1773	2.423728366788	102
436	1850	2.544956747383	102
436	2267	2.847313687257	102
436	2470	3.544945127383	102
436	3027	4.423716746788	102
436	4085	5.847313687257	102
436	5472	8.544945127383	102
436	5987	9.423716746788	102
436	6050	9.544945127383	102
436	6439	9.847313687257	102
437	900	0.847333887257	64
437	914	0.847348547257	102
437	1052	1.423675266788	64
437	1773	2.423728366788	102
437	1850	2.544956747383	102
437	2267	2.847313687257	102
437	2470	3.544945127383	102
437	3027	4.423716746788	102
437	4085	5.847313687257	102
437	5472	8.544945127383	102
437	5987	9.423716746788	102
437	6050	9.544945127383	102
437	6439	9.847313687257	102
438	901	0.847333887257	46
438	915	0.847348547257	84
438	1053	1.423675266788	46
438	1774	2.423728366788	84
438	1851	2.544956747383	84
438	2268	2.847313687257	84
438	2471	3.544945127383	84
438	3028	4.423716746788	84
438	4086	5.847313687257	84
438	5473	8.544945127383	84
438	5988	9.423716746788	84
438	6051	9.544945127383	84
438	6440	9.847313687257	84
439	903	0.847333887257	28
439	1041	1.423663646788	28
439	1055	1.423675266788	84
439	1563	1.847260587257	84
439	2428	3.544892027383	84
439	3591	5.423663646788	84
439	3654	5.544892027383	84
439	4761	7.423663646788	84
439	4824	7.544892027383	84
439	5227	7.847260587257	84
439	5430	8.544892027383	84
440	904	0.847333887257	46
440	1042	1.423663646788	46
440	1056	1.423675266788	102
440	1564	1.847260587257	102
440	2429	3.544892027383	102
440	3592	5.423663646788	102
440	3655	5.544892027383	102
440	4762	7.423663646788	102
440	4825	7.544892027383	102
440	5228	7.847260587257	102
440	5431	8.544892027383	102
441	904	0.847333887257	64
441	1042	1.423663646788	64
441	1056	1.423675266788	102
441	1564	1.847260587257	102
441	2429	3.544892027383	102
441	3592	5.423663646788	102
441	3655	5.544892027383	102
441	4762	7.423663646788	102
441	4825	7.544892027383	102
441	5228	7.847260587257	102
441	5431	8.544892027383	102
442	904	0.847333887257	1
442	904	0.847333887257	0
442	1042	1.423663646788	1
442	1042	1.423663646788	0
442	1056	1.423675266788	1
442	1056	1.423675266788	0
442	1564	1.847260587257	1
442	1564	1.847260587257	0
442	2429	3.544892027383	1
442	2429	3.544892027383	0
442	3592	5.423663646788	1
442	3592	5.423663646788	0
442	3655	5.544892027383	1
442	3655	5.544892027383	0
442	4762	7.423663646788	1
442	4762	7.423663646788	0
442	4825	7.544892027383	1
442	4825	7.544892027383	0
442	5228	7.847260587257	1
442	5228	7.847260587257	0
442	5431	8.544892027383	1
442	5431	8.544892027383	0
443	904	0.847333887257	64
443	1042	1.423663646788	64
443	1056	1.423675266788	102
443	1564	1.847260587257	102
443	2429	3.544892027383	102
443	3592	5.423663646788	102
443	3655	5.544892027383	102
443	4762	7.423663646788	102
443	4825	7.544892027383	102
443	5228	7.847260587257	102
443	5431	8.544892027383	102
444	904	0.847333887257	0
444	1042	1.423663646788	0
444	1056	1.423675266788	0
444	1564	1.847260587257	0
444	2429	3.544892027383	0
444	3592	5.423663646788	0
444	3655	5.544892027383	0
444	4762	7.423663646788	0
444	4825	7.544892027383	0
444	5228	7.847260587257	0
444	5431	8.544892027383	0
445	906	0.847339647257	64
445	1044	1.423669406788	64
445	1058	1.423684066788	102
445	1566	1.847269387257	102
445	2431	3.544900827383	102
445	3594	5.423672446788	102
445	3657	5.544900827383	102
445	4764	7.423672446788	102
445	4827	7.544900827383	102
445	5230	7.847269387257	102
445	5433	8.544900827383	102
446	907	0.847339697257	64
446	1045	1.423669456788	64
446	1059	1.423684116788	102
446	1567	1.847269437257	102
446	2432	3.544900877383	102
446	3595	5.423672496788	102
446	3658	5.544900877383	102
446	4765	7.423672496788	102
446	4828	7.544900877383	102
446	5231	7.847269437257	102
446	5434	8.544900877383	102
447	907	0.847339697257	64
447	1045	1.423669456788	64
447	1059	1.423684116788	102
447	1567	1.847269437257	102
447	2432	3.544900877383	102
447	3595	5.423672496788	102
447	3658	5.544900877383	102
447	4765	7.423672496788	102
447	4828	7.544900877383	102
447	5231	7.847269437257	102
447	5434	8.544900877383	102
448	908	0.847339697257	46
448	1046	1.423669456788	46
448	1060	1.423684116788	84
448	1568	1.847269437257	84
448	2433	3.544900877383	84
448	3596	5.423672496788	84
448	3659	5.544900877383	84
448	4766	7.423672496788	84
448	4829	7.544900877383	84
448	5232	7.847269437257	84
448	5435	8.544900877383	84
449	924	0.847357397257	0
449	1629	1.847334157257	1
449	2277	2.847322537257	2
449	2911	3.847322537257	3
449	3517	4.847334157257	4
449	4095	5.847322537257	5
449	4687	6.847322537257	6
449	5279	7.847322537257	7
449	5871	8.847322537257	8
449	6449	9.847322537257	9
450	924	0.847357397257	0.00010566
450	1629	1.847334157257	8.242e-005
450	2277	2.847322537257	7.08e-005
450	2911	3.847322537257	7.08e-005
450	3517	4.847334157257	8.242e-005
450	4095	5.847322537257	7.08e-005
450	4687	6.847322537257	7.08e-005
450	5279	7.847322537257	7.08e-005
450	5871	8.847322537257	7.08e-005
450	6449	9.847322537257	7.08e-005
451	927	0.857945619849	0
451	1632	1.857945619849	1
451	2280	2.857945619849	2
451	2914	3.857945619849	3
451	3520	4.857945619849	4
451	4098	5.857945619849	5
451	4690	6.857945619849	6
451	5282	7.857945619849	7
451	5874	8.857945619849	8
451	6452	9.857945619849	9
452	929	0.857945619849	28
453	930	0.857945619849	28
453	943	0.857957239849	84
453	1634	1.857945619849	84
453	2282	2.857945619849	84
453	2916	3.857945619849	84
453	3522	4.857945619849	84
453	4100	5.857945619849	84
453	4692	6.857945619849	84
453	5284	7.857945619849	84
453	5876	8.857945619849	84
453	6454	9.857945619849	84
454	931	0.857945619849	46
454	944	0.857957239849	102
454	1635	1.857945619849	102
454	2283	2.857945619849	102
454	2917	3.857945619849	102
454	3523	4.857945619849	102
454	4101	5.857945619849	102
454	4693	6.857945619849	102
454	5285	7.857945619849	102
454	5877	8.857945619849	102
454	6455	9.857945619849	102
455	931	0.857945619849	64
455	944	0.857957239849	102
455	1635	1.857945619849	102
455	2283	2.857945619849	102
455	2917	3.857945619849	102
455	3523	4.857945619849	102
455	4101	5.857945619849	102
455	4693	6.857945619849	102
455	5285	7.857945619849	102
455	5877	8.857945619849	102
455	6455	9.857945619849	102
456	931	0.857945619849	1
456	931	0.857945619849	0
456	944	0.857957239849	1
456	944	0.857957239849	0
456	1635	1.857945619849	1
456	1635	1.857945619849	0
456	2283	2.857945619849	1
456	2283	2.857945619849	0
456	2917	3.857945619849	1
456	2917	3.857945619849	0
456	3523	4.857945619849	1
456	3523	4.857945619849	0
456	4101	5.857945619849	1
456	4101	5.857945619849	0
456	4693	6.857945619849	1
456	4693	6.857945619849	0
456	5285	7.857945619849	1
456	5285	7.857945619849	0
456	5877	8.857945619849	1
456	5877	8.857945619849	0
456	6455	9.857945619849	1
456	6455	9.857945619849	0
457	931	0.857945619849	64
457	944	0.857957239849	102
457	1635	1.857945619849	102
457	2283	2.857945619849	102
457	2917	3.857945619849	102
457	3523	4.857945619849	102
457	4101	5.857945619849	102
457	4693	6.857945619849	102
457	5285	7.857945619849	102
457	5877	8.857945619849	102
457	6455	9.857945619849	102
458	931	0.857945619849	0
458	944	0.857957239849	0
458	1635	1.857945619849	0
458	2283	2.857945619849	0
458	2917	3.857945619849	0
458	3523	4.857945619849	0
458	4101	5.857945619849	0
458	4693	6.857945619849	0
458	5285	7.857945619849	0
458	5877	8.857945619849	0
458	6455	9.857945619849	0
459	932	0.857951379849	64
459	946	0.857966039849	102
459	1636	1.857954419849	102
459	2284	2.857954419849	102
459	2918	3.857954419849	102
459	3524	4.857954419849	102
459	4102	5.857954419849	102
459	4694	6.857954419849	102
459	5286	7.857954419849	102
459	5878	8.857954419849	102
459	6456	9.857954419849	102
460	933	0.857951429849	64
460	947	0.857966089849	102
460	1637	1.857954469849	102
460	2285	2.857954469849	102
460	2919	3.857954469849	102
460	3525	4.857954469849	102
460	4103	5.857954469849	102
460	4695	6.857954469849	102
460	5287	7.857954469849	102
460	5879	8.857954469849	102
460	6457	9.857954469849	102
461	933	0.857951429849	64
461	947	0.857966089849	102
461	1637	1.857954469849	102
461	2285	2.857954469849	102
461	2919	3.857954469849	102
461	3525	4.857954469849	102
461	4103	5.857954469849	102
461	4695	6.857954469849	102
461	5287	7.857954469849	102
461	5879	8.857954469849	102
461	6457	9.857954469849	102
462	934	0.857951429849	46
462	948	0.857966089849	84
462	1638	1.857954469849	84
462	2286	2.857954469849	84
462	2920	3.857954469849	84
462	3526	4.857954469849	84
462	4104	5.857954469849	84
462	4696	6.857954469849	84
462	5288	7.857954469849	84
462	5880	8.857954469849	84
462	6458	9.857954469849	84
463	936	0.857951429849	28
463	1023	0.858042429849	84
463	1699	1.858019189849	84
463	2333	2.858007569849	84
463	2967	3.858007569849	84
463	3573	4.858007569849	84
463	4151	5.858007569849	84
463	4743	6.858007569849	84
463	5349	7.858019189849	84
463	5927	8.858007569849	84
463	6505	9.858007569849	84
464	937	0.857951429849	46
464	1024	0.858042429849	102
464	1700	1.858019189849	102
464	2334	2.858007569849	102
464	2968	3.858007569849	102
464	3574	4.858007569849	102
464	4152	5.858007569849	102
464	4744	6.858007569849	102
464	5350	7.858019189849	102
464	5928	8.858007569849	102
464	6506	9.858007569849	102
465	937	0.857951429849	64
465	1024	0.858042429849	102
465	1700	1.858019189849	102
465	2334	2.858007569849	102
465	2968	3.858007569849	102
465	3574	4.858007569849	102
465	4152	5.858007569849	102
465	4744	6.858007569849	102
465	5350	7.858019189849	102
465	5928	8.858007569849	102
465	6506	9.858007569849	102
466	937	0.857951429849	1
466	937	0.857951429849	0
466	1024	0.858042429849	1
466	1024	0.858042429849	0
466	1700	1.858019189849	1
466	1700	1.858019189849	0
466	2334	2.858007569849	1
466	2334	2.858007569849	0
466	2968	3.858007569849	1
466	2968	3.858007569849	0
466	3574	4.858007569849	1
466	3574	4.858007569849	0
466	4152	5.858007569849	1
466	4152	5.858007569849	0
466	4744	6.858007569849	1
466	4744	6.858007569849	0
466	5350	7.858019189849	1
466	5350	7.858019189849	0
466	5928	8.858007569849	1
466	5928	8.858007569849	0
466	6506	9.858007569849	1
466	6506	9.858007569849	0
467	937	0.857951429849	64
467	1024	0.858042429849	102
467	1700	1.858019189849	102
467	2334	2.858007569849	102
467	2968	3.858007569849	102
467	3574	4.858007569849	102
467	4152	5.858007569849	102
467	4744	6.858007569849	102
467	5350	7.858019189849	102
467	5928	8.858007569849	102
467	6506	9.858007569849	102
468	937	0.857951429849	0
468	1024	0.858042429849	0
468	1700	1.858019189849	0
468	2334	2.858007569849	0
468	2968	3.858007569849	0
468	3574	4.858007569849	0
468	4152	5.858007569849	0
468	4744	6.858007569849	0
468	5350	7.858019189849	0
468	5928	8.858007569849	0
468	6506	9.858007569849	0
469	939	0.857957189849	64
469	1026	0.858051229849	102
469	1702	1.858027989849	102
469	2336	2.858016369849	102
469	2970	3.858016369849	102
469	3576	4.858016369849	102
469	4154	5.858016369849	102
469	4746	6.858016369849	102
469	5352	7.858027989849	102
469	5930	8.858016369849	102
469	6508	9.858016369849	102
470	940	0.857957239849	64
470	1027	0.858051279849	102
470	1703	1.858028039849	102
470	2337	2.858016419849	102
470	2971	3.858016419849	102
470	3577	4.858016419849	102
470	4155	5.858016419849	102
470	4747	6.858016419849	102
470	5353	7.858028039849	102
470	5931	8.858016419849	102
470	6509	9.858016419849	102
471	940	0.857957239849	64
471	1027	0.858051279849	102
471	1703	1.858028039849	102
471	2337	2.858016419849	102
471	2971	3.858016419849	102
471	3577	4.858016419849	102
471	4155	5.858016419849	102
471	4747	6.858016419849	102
471	5353	7.858028039849	102
471	5931	8.858016419849	102
471	6509	9.858016419849	102
472	941	0.857957239849	46
472	1028	0.858051279849	84
472	1704	1.858028039849	84
472	2338	2.858016419849	84
472	2972	3.858016419849	84
472	3578	4.858016419849	84
472	4156	5.858016419849	84
472	4748	6.858016419849	84
472	5354	7.858028039849	84
472	5932	8.858016419849	84
472	6510	9.858016419849	84
473	1002	0.858021959849	28
473	1016	0.858033579849	84
473	1265	1.592859276389	28
473	2326	2.857998719849	84
473	2620	3.592909336389	84
473	2960	3.857998719849	84
473	3212	4.592897716389	84
473	3566	4.857998719849	84
473	3818	5.592897716389	84
473	4610	6.84433046409	84
473	4736	6.857998719849	84
473	5794	8.84431884409	84
473	6172	9.592897716389	84
474	1003	0.858021959849	46
474	1017	0.858033579849	102
474	1266	1.592859276389	46
474	2327	2.857998719849	102
474	2621	3.592909336389	102
474	2961	3.857998719849	102
474	3213	4.592897716389	102
474	3567	4.857998719849	102
474	3819	5.592897716389	102
474	4611	6.84433046409	102
474	4737	6.857998719849	102
474	5795	8.84431884409	102
474	6173	9.592897716389	102
475	1003	0.858021959849	64
475	1017	0.858033579849	102
475	1266	1.592859276389	64
475	2327	2.857998719849	102
475	2621	3.592909336389	102
475	2961	3.857998719849	102
475	3213	4.592897716389	102
475	3567	4.857998719849	102
475	3819	5.592897716389	102
475	4611	6.84433046409	102
475	4737	6.857998719849	102
475	5795	8.84431884409	102
475	6173	9.592897716389	102
476	1003	0.858021959849	1
476	1003	0.858021959849	0
476	1017	0.858033579849	1
476	1017	0.858033579849	0
476	1266	1.592859276389	1
476	1266	1.592859276389	0
476	2327	2.857998719849	1
476	2327	2.857998719849	0
476	2621	3.592909336389	1
476	2621	3.592909336389	0
476	2961	3.857998719849	1
476	2961	3.857998719849	0
476	3213	4.592897716389	1
476	3213	4.592897716389	0
476	3567	4.857998719849	1
476	3567	4.857998719849	0
476	3819	5.592897716389	1
476	3819	5.592897716389	0
476	4611	6.84433046409	1
476	4611	6.84433046409	0
476	4737	6.857998719849	1
476	4737	6.857998719849	0
476	5795	8.84431884409	1
476	5795	8.84431884409	0
476	6173	9.592897716389	1
476	6173	9.592897716389	0
477	1003	0.858021959849	64
477	1017	0.858033579849	102
477	1266	1.592859276389	64
477	2327	2.857998719849	102
477	2621	3.592909336389	102
477	2961	3.857998719849	102
477	3213	4.592897716389	102
477	3567	4.857998719849	102
477	3819	5.592897716389	102
477	4611	6.84433046409	102
477	4737	6.857998719849	102
477	5795	8.84431884409	102
477	6173	9.592897716389	102
478	1003	0.858021959849	0
478	1017	0.858033579849	0
478	1266	1.592859276389	0
478	2327	2.857998719849	0
478	2621	3.592909336389	0
478	2961	3.857998719849	0
478	3213	4.592897716389	0
478	3567	4.857998719849	0
478	3819	5.592897716389	0
478	4611	6.84433046409	0
478	4737	6.857998719849	0
478	5795	8.84431884409	0
478	6173	9.592897716389	0
479	1005	0.858027719849	64
479	1019	0.858042379849	102
479	1268	1.592865036389	64
479	2329	2.858007519849	102
479	2623	3.592918136389	102
479	2963	3.858007519849	102
479	3215	4.592906516389	102
479	3569	4.858007519849	102
479	3821	5.592906516389	102
479	4613	6.84433926409	102
479	4739	6.858007519849	102
479	5797	8.84432764409	102
479	6175	9.592906516389	102
480	1006	0.858027769849	64
480	1020	0.858042429849	102
480	1269	1.592865086389	64
480	2330	2.858007569849	102
480	2624	3.592918186389	102
480	2964	3.858007569849	102
480	3216	4.592906566389	102
480	3570	4.858007569849	102
480	3822	5.592906566389	102
480	4614	6.84433931409	102
480	4740	6.858007569849	102
480	5798	8.84432769409	102
480	6176	9.592906566389	102
481	1006	0.858027769849	64
481	1020	0.858042429849	102
481	1269	1.592865086389	64
481	2330	2.858007569849	102
481	2624	3.592918186389	102
481	2964	3.858007569849	102
481	3216	4.592906566389	102
481	3570	4.858007569849	102
481	3822	5.592906566389	102
481	4614	6.84433931409	102
481	4740	6.858007569849	102
481	5798	8.84432769409	102
481	6176	9.592906566389	102
482	1007	0.858027769849	46
482	1021	0.858042429849	84
482	1270	1.592865086389	46
482	2331	2.858007569849	84
482	2625	3.592918186389	84
482	2965	3.858007569849	84
482	3217	4.592906566389	84
482	3571	4.858007569849	84
482	3823	5.592906566389	84
482	4615	6.84433931409	84
482	4741	6.858007569849	84
482	5799	8.84432769409	84
482	6177	9.592906566389	84
483	1009	0.858027769849	28
483	1258	1.592853466389	28
483	1272	1.592865086389	84
483	1640	1.857954469849	84
483	1934	2.592853466389	84
483	2568	3.592853466389	84
483	2796	3.84427459409	84
483	4106	5.857954469849	84
483	4698	6.857954469849	84
483	5164	7.84427459409	84
483	5556	8.592853466389	84
483	6460	9.857954469849	84
484	1010	0.858027769849	46
484	1259	1.592853466389	46
484	1273	1.592865086389	102
484	1641	1.857954469849	102
484	1935	2.592853466389	102
484	2569	3.592853466389	102
484	2797	3.84427459409	102
484	4107	5.857954469849	102
484	4699	6.857954469849	102
484	5165	7.84427459409	102
484	5557	8.592853466389	102
484	6461	9.857954469849	102
485	1010	0.858027769849	64
485	1259	1.592853466389	64
485	1273	1.592865086389	102
485	1641	1.857954469849	102
485	1935	2.592853466389	102
485	2569	3.592853466389	102
485	2797	3.84427459409	102
485	4107	5.857954469849	102
485	4699	6.857954469849	102
485	5165	7.84427459409	102
485	5557	8.592853466389	102
485	6461	9.857954469849	102
486	1010	0.858027769849	1
486	1010	0.858027769849	0
486	1259	1.592853466389	1
486	1259	1.592853466389	0
486	1273	1.592865086389	1
486	1273	1.592865086389	0
486	1641	1.857954469849	1
486	1641	1.857954469849	0
486	1935	2.592853466389	1
486	1935	2.592853466389	0
486	2569	3.592853466389	1
486	2569	3.592853466389	0
486	2797	3.84427459409	1
486	2797	3.84427459409	0
486	4107	5.857954469849	1
486	4107	5.857954469849	0
486	4699	6.857954469849	1
486	4699	6.857954469849	0
486	5165	7.84427459409	1
486	5165	7.84427459409	0
486	5557	8.592853466389	1
486	5557	8.592853466389	0
486	6461	9.857954469849	1
486	6461	9.857954469849	0
487	1010	0.858027769849	64
487	1259	1.592853466389	64
487	1273	1.592865086389	102
487	1641	1.857954469849	102
487	1935	2.592853466389	102
487	2569	3.592853466389	102
487	2797	3.84427459409	102
487	4107	5.857954469849	102
487	4699	6.857954469849	102
487	5165	7.84427459409	102
487	5557	8.592853466389	102
487	6461	9.857954469849	102
488	1010	0.858027769849	0
488	1259	1.592853466389	0
488	1273	1.592865086389	0
488	1641	1.857954469849	0
488	1935	2.592853466389	0
488	2569	3.592853466389	0
488	2797	3.84427459409	0
488	4107	5.857954469849	0
488	4699	6.857954469849	0
488	5165	7.84427459409	0
488	5557	8.592853466389	0
488	6461	9.857954469849	0
489	1012	0.858033529849	64
489	1261	1.592859226389	64
489	1275	1.592873886389	102
489	1643	1.857963269849	102
489	1937	2.592862266389	102
489	2571	3.592862266389	102
489	2799	3.84428339409	102
489	4109	5.857963269849	102
489	4701	6.857963269849	102
489	5167	7.84428339409	102
489	5559	8.592862266389	102
489	6463	9.857963269849	102
490	1013	0.858033579849	64
490	1262	1.592859276389	64
490	1276	1.592873936389	102
490	1644	1.857963319849	102
490	1938	2.592862316389	102
490	2572	3.592862316389	102
490	2800	3.84428344409	102
490	4110	5.857963319849	102
490	4702	6.857963319849	102
490	5168	7.84428344409	102
490	5560	8.592862316389	102
490	6464	9.857963319849	102
491	1013	0.858033579849	64
491	1262	1.592859276389	64
491	1276	1.592873936389	102
491	1644	1.857963319849	102
491	1938	2.592862316389	102
491	2572	3.592862316389	102
491	2800	3.84428344409	102
491	4110	5.857963319849	102
491	4702	6.857963319849	102
491	5168	7.84428344409	102
491	5560	8.592862316389	102
491	6464	9.857963319849	102
492	1014	0.858033579849	46
492	1263	1.592859276389	46
492	1277	1.592873936389	84
492	1645	1.857963319849	84
492	1939	2.592862316389	84
492	2573	3.592862316389	84
492	2801	3.84428344409	84
492	4111	5.857963319849	84
492	4703	6.857963319849	84
492	5169	7.84428344409	84
492	5561	8.592862316389	84
492	6465	9.857963319849	84
493	1030	0.858051279849	0
493	1706	1.858028039849	1
493	2340	2.858016419849	2
493	2974	3.858016419849	3
493	3580	4.858016419849	4
493	4158	5.858016419849	5
493	4750	6.858016419849	6
493	5356	7.858028039849	7
493	5934	8.858016419849	8
493	6512	9.858016419849	9
494	1030	0.858051279849	0.00010566
494	1706	1.858028039849	8.242e-005
494	2340	2.858016419849	7.08e-005
494	2974	3.858016419849	7.08e-005
494	3580	4.858016419849	7.08e-005
494	4158	5.858016419849	7.08e-005
494	4750	6.858016419849	7.08e-005
494	5356	7.858028039849	8.242e-005
494	5934	8.858016419849	7.08e-005
494	6512	9.858016419849	7.08e-005

