file 344853 1611888005                                          
version 2
run Ping-0-20210121-15:23:00-2976
attr configname Ping
attr datetime 20210121-15:23:00
attr experiment Ping
attr inifile 10Host_SpineLeaf.ini
attr iterationvars ""
attr iterationvarsf ""
attr measurement ""
attr network spineLeafNetwork
attr processid 2976
attr repetition 0
attr replication #0
attr resultdir results
attr runnumber 0
attr seedset 0
param **.H*.numApps 1
param **.H*.app[0].typename "\"PingApp\""
param **.H*.app[0].destAddr "\"H10\""
param **.H*.app[0].count 10
param *.Visualizer.interfaceTableVisualizer.displayInterfaceTables true
param *.Visualizer.interfaceTableVisualizer.textColor "\"white\""
param *.Visualizer.interfaceTableVisualizer.displayBackground true
param *.Visualizer.interfaceTableVisualizer.displayWiredInterfacesAtConnections false
param *.Visualizer.interfaceTableVisualizer.backgroundColor "\"black\""
param *.Visualizer.interfaceTableVisualizer.opacity 0.75
param *.Visualizer.interfaceTableVisualizer.format "\"%N %\\\\%n/%l%\\\\%m\""
param **.configurator.config "xmldoc(\"10Host_SpineLeaf_Routing.xml\")"

vector 0 spineLeafNetwork.H4.app[0] pingTxSeq:vector ETV
attr interpolationmode none
attr title "ping tx seq, vector"
0	92853 237 1 5937 0.423654796788 9.423654796788 10 0 9 45 285
vector 1 spineLeafNetwork.H4.ipv4.arp arpRequestSent:vector(packetBytes) ETV
attr source arpRequestSent
attr title "ARP request sent, vector(packetBytes)"
1	93090 22 3 3 0.423654796788 0.423654796788 1 28 28 28 784
vector 2 spineLeafNetwork.H4.eth[0].encap encapPk:vector(packetBytes) ETV
attr interpolationmode none
attr source encapPk
attr title "packets encapsulated, vector(packetBytes)"
2	93112 270 4 5939 0.423654796788 9.423654796788 11 28 84 868 71344
vector 3 spineLeafNetwork.H4.eth[0].mac packetReceivedFromUpper:vector(packetBytes) ETV
attr interpolationmode none
attr source packetReceivedFromUpper
attr title "packet bytes from higher layer, vector(packetBytes)"
3	93382 280 5 5940 0.423654796788 9.423654796788 11 46 102 1066 106156
vector 4 spineLeafNetwork.H4.eth[0].mac.queue packetPushed:vector(packetBytes) ETV
attr interpolationmode none
attr title "packet pushed, vector(packetBytes)"
4	93662 280 5 5940 0.423654796788 9.423654796788 11 64 102 1084 108136
vector 5 spineLeafNetwork.H4.eth[0].mac.queue queueLength:vector ETV
attr interpolationmode sample-hold
attr source "count(packetPushed) - count(packetPopped) - count(packetRemoved) - count(packetDropped)"
attr title "queue length, vector"
5	93942 518 5 5940 0.423654796788 9.423654796788 22 0 1 11 11
vector 6 spineLeafNetwork.H4.eth[0].mac.queue packetPopped:vector(packetBytes) ETV
attr interpolationmode none
attr title "packet popped, vector(packetBytes)"
6	94460 280 5 5940 0.423654796788 9.423654796788 11 64 102 1084 108136
vector 7 spineLeafNetwork.H4.eth[0].mac.queue queueingTime:vector ETV
attr interpolationmode none
attr source queueingTime(packetPopped)
attr title "queueing times, vector"
attr unit s
7	94740 259 5 5940 0.423654796788 9.423654796788 11 0 0 0 0
vector 8 spineLeafNetwork.H4.eth[0].mac txPk:vector(packetBytes) ETV
attr interpolationmode none
attr source packetSentToLower
attr title "packets transmitted, vector(packetBytes)"
8	94999 280 6 5941 0.423660556788 9.423663596788 11 64 102 1084 108136
vector 9 spineLeafNetwork.leaf2.eth[3].mac rxPkOk:vector(packetBytes) ETV
attr interpolationmode none
attr source rxPkOk
attr title "packets received OK, vector(packetBytes)"
9	95279 280 7 5942 0.423660606788 9.423663646788 11 64 102 1084 108136
vector 10 spineLeafNetwork.leaf2.eth[3].mac passedUpPk:vector(packetBytes) ETV
attr interpolationmode none
attr source packetSentToUpper
attr title "packets passed to higher layer, vector(packetBytes)"
10	95559 291 7 5942 0.423660606788 9.423663646788 11 64 102 1084 108136
vector 11 spineLeafNetwork.leaf2.eth[3].encap decapPk:vector(packetBytes) ETV
attr interpolationmode none
attr source decapPk
attr title "packets decapsulated, vector(packetBytes)"
11	95850 281 8 5943 0.423660606788 9.423663646788 11 46 84 886 72676
vector 12 spineLeafNetwork.leaf2.ipv4.arp arpReplySent:vector(packetBytes) ETV
attr source arpReplySent
attr title "ARP replies sent, vector(packetBytes)"
12	96131 123 9 902 0.423660606788 0.847333887257 5 28 28 140 3920
vector 13 spineLeafNetwork.leaf2.eth[3].encap encapPk:vector(packetBytes) ETV
attr interpolationmode none
attr source encapPk
attr title "packets encapsulated, vector(packetBytes)"
13	96254 283 10 5990 0.423660606788 9.423716746788 11 28 84 868 71344
vector 14 spineLeafNetwork.leaf2.eth[3].mac packetReceivedFromUpper:vector(packetBytes) ETV
attr interpolationmode none
attr source packetReceivedFromUpper
attr title "packet bytes from higher layer, vector(packetBytes)"
14	96537 293 11 5991 0.423660606788 9.423716746788 11 46 102 1066 106156
vector 15 spineLeafNetwork.leaf2.eth[3].mac.queue packetPushed:vector(packetBytes) ETV
attr interpolationmode none
attr title "packet pushed, vector(packetBytes)"
15	96830 293 11 5991 0.423660606788 9.423716746788 11 64 102 1084 108136
vector 16 spineLeafNetwork.leaf2.eth[3].mac.queue queueLength:vector ETV
attr interpolationmode sample-hold
attr source "count(packetPushed) - count(packetPopped) - count(packetRemoved) - count(packetDropped)"
attr title "queue length, vector"
16	97123 544 11 5991 0.423660606788 9.423716746788 22 0 1 11 11
vector 17 spineLeafNetwork.leaf2.eth[3].mac.queue packetPopped:vector(packetBytes) ETV
attr interpolationmode none
attr title "packet popped, vector(packetBytes)"
17	97667 293 11 5991 0.423660606788 9.423716746788 11 64 102 1084 108136
vector 18 spineLeafNetwork.leaf2.eth[3].mac.queue queueingTime:vector ETV
attr interpolationmode none
attr source queueingTime(packetPopped)
attr title "queueing times, vector"
attr unit s
18	97960 272 11 5991 0.423660606788 9.423716746788 11 0 0 0 0
vector 19 spineLeafNetwork.leaf2.eth[3].mac txPk:vector(packetBytes) ETV
attr interpolationmode none
attr source packetSentToLower
attr title "packets transmitted, vector(packetBytes)"
19	98232 293 13 5993 0.423666366788 9.423725546788 11 64 102 1084 108136
vector 20 spineLeafNetwork.H4.eth[0].mac rxPkOk:vector(packetBytes) ETV
attr interpolationmode none
attr source rxPkOk
attr title "packets received OK, vector(packetBytes)"
20	98525 293 14 5994 0.423666416788 9.423725596788 11 64 102 1084 108136
vector 21 spineLeafNetwork.H4.eth[0].mac passedUpPk:vector(packetBytes) ETV
attr interpolationmode none
attr source packetSentToUpper
attr title "packets passed to higher layer, vector(packetBytes)"
21	98818 293 14 5994 0.423666416788 9.423725596788 11 64 102 1084 108136
vector 22 spineLeafNetwork.H4.eth[0].encap decapPk:vector(packetBytes) ETV
attr interpolationmode none
attr source decapPk
attr title "packets decapsulated, vector(packetBytes)"
22	99111 283 15 5995 0.423666416788 9.423725596788 11 46 84 886 72676
vector 23 spineLeafNetwork.leaf2.ipv4.arp arpRequestSent:vector(packetBytes) ETV
attr source arpRequestSent
attr title "ARP request sent, vector(packetBytes)"
23	99394 75 23 1040 0.423675266788 1.423663646788 3 28 28 84 2352
vector 24 spineLeafNetwork.leaf2.eth[2].encap encapPk:vector(packetBytes) ETV
attr interpolationmode none
attr source encapPk
attr title "packets encapsulated, vector(packetBytes)"
24	99469 282 24 6397 0.423675266788 9.847260587257 11 28 84 868 71344
vector 25 spineLeafNetwork.leaf2.eth[2].mac packetReceivedFromUpper:vector(packetBytes) ETV
attr interpolationmode none
attr source packetReceivedFromUpper
attr title "packet bytes from higher layer, vector(packetBytes)"
25	99751 292 25 6398 0.423675266788 9.847260587257 11 46 102 1066 106156
vector 26 spineLeafNetwork.leaf2.eth[2].mac.queue packetPushed:vector(packetBytes) ETV
attr interpolationmode none
attr title "packet pushed, vector(packetBytes)"
26	100043 292 25 6398 0.423675266788 9.847260587257 11 64 102 1084 108136
vector 27 spineLeafNetwork.leaf2.eth[2].mac.queue queueLength:vector ETV
attr interpolationmode sample-hold
attr source "count(packetPushed) - count(packetPopped) - count(packetRemoved) - count(packetDropped)"
attr title "queue length, vector"
27	100335 542 25 6398 0.423675266788 9.847260587257 22 0 1 11 11
vector 28 spineLeafNetwork.leaf2.eth[2].mac.queue packetPopped:vector(packetBytes) ETV
attr interpolationmode none
attr title "packet popped, vector(packetBytes)"
28	100877 292 25 6398 0.423675266788 9.847260587257 11 64 102 1084 108136
vector 29 spineLeafNetwork.leaf2.eth[2].mac.queue queueingTime:vector ETV
attr interpolationmode none
attr source queueingTime(packetPopped)
attr title "queueing times, vector"
attr unit s
29	101169 271 25 6398 0.423675266788 9.847260587257 11 0 0 0 0
vector 30 spineLeafNetwork.leaf2.eth[2].mac txPk:vector(packetBytes) ETV
attr interpolationmode none
attr source packetSentToLower
attr title "packets transmitted, vector(packetBytes)"
30	101440 292 27 6400 0.423681026788 9.847269387257 11 64 102 1084 108136
vector 31 spineLeafNetwork.spine3.eth[1].mac rxPkOk:vector(packetBytes) ETV
attr interpolationmode none
attr source rxPkOk
attr title "packets received OK, vector(packetBytes)"
31	101732 292 28 6401 0.423681076788 9.847269437257 11 64 102 1084 108136
vector 32 spineLeafNetwork.spine3.eth[1].mac passedUpPk:vector(packetBytes) ETV
attr interpolationmode none
attr source packetSentToUpper
attr title "packets passed to higher layer, vector(packetBytes)"
32	102024 292 28 6401 0.423681076788 9.847269437257 11 64 102 1084 108136
vector 33 spineLeafNetwork.spine3.eth[1].encap decapPk:vector(packetBytes) ETV
attr interpolationmode none
attr source decapPk
attr title "packets decapsulated, vector(packetBytes)"
33	102316 282 29 6402 0.423681076788 9.847269437257 11 46 84 886 72676
vector 34 spineLeafNetwork.spine3.ipv4.arp arpReplySent:vector(packetBytes) ETV
attr source arpReplySent
attr title "ARP replies sent, vector(packetBytes)"
34	102598 303 30 4861 0.423681076788 7.544933237383 12 28 28 336 9408
vector 35 spineLeafNetwork.spine3.eth[1].encap encapPk:vector(packetBytes) ETV
attr interpolationmode none
attr source encapPk
attr title "packets encapsulated, vector(packetBytes)"
35	102901 206 31 5265 0.423681076788 7.847304837257 8 28 84 616 50176
vector 36 spineLeafNetwork.spine3.eth[1].mac packetReceivedFromUpper:vector(packetBytes) ETV
attr interpolationmode none
attr source packetReceivedFromUpper
attr title "packet bytes from higher layer, vector(packetBytes)"
36	103107 213 32 5266 0.423681076788 7.847304837257 8 46 102 760 74944
vector 37 spineLeafNetwork.spine3.eth[1].mac.queue packetPushed:vector(packetBytes) ETV
attr interpolationmode none
attr title "packet pushed, vector(packetBytes)"
37	103320 213 32 5266 0.423681076788 7.847304837257 8 64 102 778 76924
vector 38 spineLeafNetwork.spine3.eth[1].mac.queue queueLength:vector ETV
attr interpolationmode sample-hold
attr source "count(packetPushed) - count(packetPopped) - count(packetRemoved) - count(packetDropped)"
attr title "queue length, vector"
38	103533 396 32 5266 0.423681076788 7.847304837257 16 0 1 8 8
vector 39 spineLeafNetwork.spine3.eth[1].mac.queue packetPopped:vector(packetBytes) ETV
attr interpolationmode none
attr title "packet popped, vector(packetBytes)"
39	103929 213 32 5266 0.423681076788 7.847304837257 8 64 102 778 76924
vector 40 spineLeafNetwork.spine3.eth[1].mac.queue queueingTime:vector ETV
attr interpolationmode none
attr source queueingTime(packetPopped)
attr title "queueing times, vector"
attr unit s
40	104142 198 32 5266 0.423681076788 7.847304837257 8 0 0 0 0
vector 41 spineLeafNetwork.spine3.eth[1].mac txPk:vector(packetBytes) ETV
attr interpolationmode none
attr source packetSentToLower
attr title "packets transmitted, vector(packetBytes)"
41	104340 213 34 5268 0.423686836788 7.847313637257 8 64 102 778 76924
vector 42 spineLeafNetwork.leaf2.eth[2].mac rxPkOk:vector(packetBytes) ETV
attr interpolationmode none
attr source rxPkOk
attr title "packets received OK, vector(packetBytes)"
42	104553 213 35 5269 0.423686886788 7.847313687257 8 64 102 778 76924
vector 43 spineLeafNetwork.leaf2.eth[2].mac passedUpPk:vector(packetBytes) ETV
attr interpolationmode none
attr source packetSentToUpper
attr title "packets passed to higher layer, vector(packetBytes)"
43	104766 213 35 5269 0.423686886788 7.847313687257 8 64 102 778 76924
vector 44 spineLeafNetwork.leaf2.eth[2].encap decapPk:vector(packetBytes) ETV
attr interpolationmode none
attr source decapPk
attr title "packets decapsulated, vector(packetBytes)"
44	104979 206 36 5270 0.423686886788 7.847313687257 8 46 84 634 51508
vector 45 spineLeafNetwork.spine3.ipv4.arp arpRequestSent:vector(packetBytes) ETV
attr source arpRequestSent
attr title "ARP request sent, vector(packetBytes)"
45	105185 49 44 354 0.423695736788 0.548913082304 2 28 28 56 1568
vector 46 spineLeafNetwork.spine3.eth[3].encap encapPk:vector(packetBytes) ETV
attr interpolationmode none
attr source encapPk
attr title "packets encapsulated, vector(packetBytes)"
46	105234 1155 45 6404 0.423695736788 9.847269437257 45 28 84 3220 254800
vector 47 spineLeafNetwork.spine3.eth[3].mac packetReceivedFromUpper:vector(packetBytes) ETV
attr interpolationmode none
attr source packetReceivedFromUpper
attr title "packet bytes from higher layer, vector(packetBytes)"
47	106389 1190 46 6405 0.423695736788 9.847269437257 45 46 102 4030 385300
vector 48 spineLeafNetwork.spine3.eth[3].mac.queue packetPushed:vector(packetBytes) ETV
attr interpolationmode none
attr title "packet pushed, vector(packetBytes)"
48	107579 1190 46 6405 0.423695736788 9.847269437257 45 64 102 4210 405100
vector 49 spineLeafNetwork.spine3.eth[3].mac.queue queueLength:vector ETV
attr interpolationmode sample-hold
attr source "count(packetPushed) - count(packetPopped) - count(packetRemoved) - count(packetDropped)"
attr title "queue length, vector"
49	108769 2220 46 6405 0.423695736788 9.847269437257 90 0 1 45 45
vector 50 spineLeafNetwork.spine3.eth[3].mac.queue packetPopped:vector(packetBytes) ETV
attr interpolationmode none
attr title "packet popped, vector(packetBytes)"
50	110989 1190 46 6405 0.423695736788 9.847269437257 45 64 102 4210 405100
vector 51 spineLeafNetwork.spine3.eth[3].mac.queue queueingTime:vector ETV
attr interpolationmode none
attr source queueingTime(packetPopped)
attr title "queueing times, vector"
attr unit s
51	112179 1110 46 6405 0.423695736788 9.847269437257 45 0 0 0 0
vector 52 spineLeafNetwork.spine3.eth[3].mac txPk:vector(packetBytes) ETV
attr interpolationmode none
attr source packetSentToLower
attr title "packets transmitted, vector(packetBytes)"
52	113289 1190 48 6407 0.423701496788 9.847278237257 45 64 102 4210 405100
vector 53 spineLeafNetwork.leaf4.eth[2].mac rxPkOk:vector(packetBytes) ETV
attr interpolationmode none
attr source rxPkOk
attr title "packets received OK, vector(packetBytes)"
53	114479 1190 49 6408 0.423701546788 9.847278287257 45 64 102 4210 405100
vector 54 spineLeafNetwork.leaf4.eth[2].mac passedUpPk:vector(packetBytes) ETV
attr interpolationmode none
attr source packetSentToUpper
attr title "packets passed to higher layer, vector(packetBytes)"
54	115669 1190 49 6408 0.423701546788 9.847278287257 45 64 102 4210 405100
vector 55 spineLeafNetwork.leaf4.eth[2].encap decapPk:vector(packetBytes) ETV
attr interpolationmode none
attr source decapPk
attr title "packets decapsulated, vector(packetBytes)"
55	116859 1155 50 6409 0.423701546788 9.847278287257 45 46 84 3400 268120
vector 56 spineLeafNetwork.leaf4.ipv4.arp arpReplySent:vector(packetBytes) ETV
attr source arpReplySent
attr title "ARP replies sent, vector(packetBytes)"
56	118014 49 51 303 0.423701546788 0.548860252304 2 28 28 56 1568
vector 57 spineLeafNetwork.leaf4.eth[2].encap encapPk:vector(packetBytes) ETV
attr interpolationmode none
attr source encapPk
attr title "packets encapsulated, vector(packetBytes)"
57	118063 1077 52 6365 0.423701546788 9.84430999409 42 28 84 2968 233632
vector 58 spineLeafNetwork.leaf4.eth[2].mac packetReceivedFromUpper:vector(packetBytes) ETV
attr interpolationmode none
attr source packetReceivedFromUpper
attr title "packet bytes from higher layer, vector(packetBytes)"
58	119140 1109 53 6366 0.423701546788 9.84430999409 42 46 102 3724 354088
vector 59 spineLeafNetwork.leaf4.eth[2].mac.queue packetPushed:vector(packetBytes) ETV
attr interpolationmode none
attr title "packet pushed, vector(packetBytes)"
59	120249 1109 53 6366 0.423701546788 9.84430999409 42 64 102 3904 373888
vector 60 spineLeafNetwork.leaf4.eth[2].mac.queue queueLength:vector ETV
attr interpolationmode sample-hold
attr source "count(packetPushed) - count(packetPopped) - count(packetRemoved) - count(packetDropped)"
attr title "queue length, vector"
60	121358 2070 53 6366 0.423701546788 9.84430999409 84 0 1 42 42
vector 61 spineLeafNetwork.leaf4.eth[2].mac.queue packetPopped:vector(packetBytes) ETV
attr interpolationmode none
attr title "packet popped, vector(packetBytes)"
61	123428 1109 53 6366 0.423701546788 9.84430999409 42 64 102 3904 373888
vector 62 spineLeafNetwork.leaf4.eth[2].mac.queue queueingTime:vector ETV
attr interpolationmode none
attr source queueingTime(packetPopped)
attr title "queueing times, vector"
attr unit s
62	124537 1035 53 6366 0.423701546788 9.84430999409 42 0 0 0 0
vector 63 spineLeafNetwork.leaf4.eth[2].mac txPk:vector(packetBytes) ETV
attr interpolationmode none
attr source packetSentToLower
attr title "packets transmitted, vector(packetBytes)"
63	125572 1109 55 6368 0.423707306788 9.84431879409 42 64 102 3904 373888
vector 64 spineLeafNetwork.spine3.eth[3].mac rxPkOk:vector(packetBytes) ETV
attr interpolationmode none
attr source rxPkOk
attr title "packets received OK, vector(packetBytes)"
64	126681 1109 56 6369 0.423707356788 9.84431884409 42 64 102 3904 373888
vector 65 spineLeafNetwork.spine3.eth[3].mac passedUpPk:vector(packetBytes) ETV
attr interpolationmode none
attr source packetSentToUpper
attr title "packets passed to higher layer, vector(packetBytes)"
65	127790 1109 56 6369 0.423707356788 9.84431884409 42 64 102 3904 373888
vector 66 spineLeafNetwork.spine3.eth[3].encap decapPk:vector(packetBytes) ETV
attr interpolationmode none
attr source decapPk
attr title "packets decapsulated, vector(packetBytes)"
66	128899 1077 57 6370 0.423707356788 9.84431884409 42 46 84 3148 246952
vector 67 spineLeafNetwork.leaf4.ipv4.arp arpRequestSent:vector(packetBytes) ETV
attr source arpRequestSent
attr title "ARP request sent, vector(packetBytes)"
67	129976 713 65 5320 0.423716206788 7.857989869849 28 28 28 784 21952
vector 68 spineLeafNetwork.leaf4.eth[3].encap encapPk:vector(packetBytes) ETV
attr interpolationmode none
attr source encapPk
attr title "packets encapsulated, vector(packetBytes)"
68	130689 2344 66 6474 0.423716206788 9.857972169849 91 28 84 7588 635824
vector 69 spineLeafNetwork.leaf4.eth[3].mac packetReceivedFromUpper:vector(packetBytes) ETV
attr interpolationmode none
attr source packetReceivedFromUpper
attr title "packet bytes from higher layer, vector(packetBytes)"
69	133033 2434 67 6475 0.423716206788 9.857972169849 91 46 102 9226 938476
vector 70 spineLeafNetwork.leaf4.eth[3].mac.queue packetPushed:vector(packetBytes) ETV
attr interpolationmode none
attr title "packet pushed, vector(packetBytes)"
70	135467 2434 67 6475 0.423716206788 9.857972169849 91 64 102 9244 940456
vector 71 spineLeafNetwork.leaf4.eth[3].mac.queue queueLength:vector ETV
attr interpolationmode sample-hold
attr source "count(packetPushed) - count(packetPopped) - count(packetRemoved) - count(packetDropped)"
attr title "queue length, vector"
71	137901 4506 67 6475 0.423716206788 9.857972169849 182 0 1 91 91
vector 72 spineLeafNetwork.leaf4.eth[3].mac.queue packetPopped:vector(packetBytes) ETV
attr interpolationmode none
attr title "packet popped, vector(packetBytes)"
72	142407 2434 67 6475 0.423716206788 9.857972169849 91 64 102 9244 940456
vector 73 spineLeafNetwork.leaf4.eth[3].mac.queue queueingTime:vector ETV
attr interpolationmode none
attr source queueingTime(packetPopped)
attr title "queueing times, vector"
attr unit s
73	144841 2253 67 6475 0.423716206788 9.857972169849 91 0 0 0 0
vector 74 spineLeafNetwork.leaf4.eth[3].mac txPk:vector(packetBytes) ETV
attr interpolationmode none
attr source packetSentToLower
attr title "packets transmitted, vector(packetBytes)"
74	147094 2434 69 6477 0.423721966788 9.857980969849 91 64 102 9244 940456
vector 75 spineLeafNetwork.H10.eth[0].mac rxPkOk:vector(packetBytes) ETV
attr interpolationmode none
attr source rxPkOk
attr title "packets received OK, vector(packetBytes)"
75	149528 2434 70 6478 0.423722016788 9.857981019849 91 64 102 9244 940456
vector 76 spineLeafNetwork.H10.eth[0].mac passedUpPk:vector(packetBytes) ETV
attr interpolationmode none
attr source packetSentToUpper
attr title "packets passed to higher layer, vector(packetBytes)"
76	151962 2434 70 6478 0.423722016788 9.857981019849 91 64 102 9244 940456
vector 77 spineLeafNetwork.H10.eth[0].encap decapPk:vector(packetBytes) ETV
attr interpolationmode none
attr source decapPk
attr title "packets decapsulated, vector(packetBytes)"
77	154396 2344 71 6479 0.423722016788 9.857981019849 91 46 84 7606 637156
vector 78 spineLeafNetwork.H10.ipv4.arp arpReplySent:vector(packetBytes) ETV
attr source arpReplySent
attr title "ARP replies sent, vector(packetBytes)"
78	156740 24 72 72 0.423722016788 0.423722016788 1 28 28 28 784
vector 79 spineLeafNetwork.H10.eth[0].encap encapPk:vector(packetBytes) ETV
attr interpolationmode none
attr source encapPk
attr title "packets encapsulated, vector(packetBytes)"
79	156764 2344 73 6484 0.423722016788 9.857981019849 91 28 84 7588 635824
vector 80 spineLeafNetwork.H10.eth[0].mac packetReceivedFromUpper:vector(packetBytes) ETV
attr interpolationmode none
attr source packetReceivedFromUpper
attr title "packet bytes from higher layer, vector(packetBytes)"
80	159108 2434 74 6485 0.423722016788 9.857981019849 91 46 102 9226 938476
vector 81 spineLeafNetwork.H10.eth[0].mac.queue packetPushed:vector(packetBytes) ETV
attr interpolationmode none
attr title "packet pushed, vector(packetBytes)"
81	161542 2434 74 6485 0.423722016788 9.857981019849 91 64 102 9244 940456
vector 82 spineLeafNetwork.H10.eth[0].mac.queue queueLength:vector ETV
attr interpolationmode sample-hold
attr source "count(packetPushed) - count(packetPopped) - count(packetRemoved) - count(packetDropped)"
attr title "queue length, vector"
82	163976 4506 74 6485 0.423722016788 9.857981019849 182 0 1 91 91
vector 83 spineLeafNetwork.H10.eth[0].mac.queue packetPopped:vector(packetBytes) ETV
attr interpolationmode none
attr title "packet popped, vector(packetBytes)"
83	168482 2434 74 6485 0.423722016788 9.857981019849 91 64 102 9244 940456
vector 84 spineLeafNetwork.H10.eth[0].mac.queue queueingTime:vector ETV
attr interpolationmode none
attr source queueingTime(packetPopped)
attr title "queueing times, vector"
attr unit s
84	170916 2253 74 6485 0.423722016788 9.857981019849 91 0 0 0 0
vector 85 spineLeafNetwork.H10.eth[0].mac txPk:vector(packetBytes) ETV
attr interpolationmode none
attr source packetSentToLower
attr title "packets transmitted, vector(packetBytes)"
85	173169 2434 76 6487 0.423727776788 9.857989819849 91 64 102 9244 940456
vector 86 spineLeafNetwork.leaf4.eth[3].mac rxPkOk:vector(packetBytes) ETV
attr interpolationmode none
attr source rxPkOk
attr title "packets received OK, vector(packetBytes)"
86	175603 2434 77 6488 0.423727826788 9.857989869849 91 64 102 9244 940456
vector 87 spineLeafNetwork.leaf4.eth[3].mac passedUpPk:vector(packetBytes) ETV
attr interpolationmode none
attr source packetSentToUpper
attr title "packets passed to higher layer, vector(packetBytes)"
87	178037 2434 77 6488 0.423727826788 9.857989869849 91 64 102 9244 940456
vector 88 spineLeafNetwork.leaf4.eth[3].encap decapPk:vector(packetBytes) ETV
attr interpolationmode none
attr source decapPk
attr title "packets decapsulated, vector(packetBytes)"
88	180471 2344 78 6489 0.423727826788 9.857989869849 91 46 84 7606 637156
vector 89 spineLeafNetwork.leaf4.eth[1].encap encapPk:vector(packetBytes) ETV
attr interpolationmode none
attr source encapPk
attr title "packets encapsulated, vector(packetBytes)"
89	182815 950 96 6491 0.423745526788 9.857989869849 37 28 84 2604 204624
vector 90 spineLeafNetwork.leaf4.eth[1].mac packetReceivedFromUpper:vector(packetBytes) ETV
attr interpolationmode none
attr source packetReceivedFromUpper
attr title "packet bytes from higher layer, vector(packetBytes)"
90	183765 978 97 6492 0.423745526788 9.857989869849 37 46 102 3270 310356
vector 91 spineLeafNetwork.leaf4.eth[1].mac.queue packetPushed:vector(packetBytes) ETV
attr interpolationmode none
attr title "packet pushed, vector(packetBytes)"
91	184743 978 97 6492 0.423745526788 9.857989869849 37 64 102 3432 328176
vector 92 spineLeafNetwork.leaf4.eth[1].mac.queue queueLength:vector ETV
attr interpolationmode sample-hold
attr source "count(packetPushed) - count(packetPopped) - count(packetRemoved) - count(packetDropped)"
attr title "queue length, vector"
92	185721 1826 97 6492 0.423745526788 9.857989869849 74 0 1 37 37
vector 93 spineLeafNetwork.leaf4.eth[1].mac.queue packetPopped:vector(packetBytes) ETV
attr interpolationmode none
attr title "packet popped, vector(packetBytes)"
93	187547 978 97 6492 0.423745526788 9.857989869849 37 64 102 3432 328176
vector 94 spineLeafNetwork.leaf4.eth[1].mac.queue queueingTime:vector ETV
attr interpolationmode none
attr source queueingTime(packetPopped)
attr title "queueing times, vector"
attr unit s
94	188525 913 97 6492 0.423745526788 9.857989869849 37 0 0 0 0
vector 95 spineLeafNetwork.leaf4.eth[1].mac txPk:vector(packetBytes) ETV
attr interpolationmode none
attr source packetSentToLower
attr title "packets transmitted, vector(packetBytes)"
95	189438 978 99 6494 0.423751286788 9.857998669849 37 64 102 3432 328176
vector 96 spineLeafNetwork.spine2.eth[3].mac rxPkOk:vector(packetBytes) ETV
attr interpolationmode none
attr source rxPkOk
attr title "packets received OK, vector(packetBytes)"
96	190416 979 100 6495 0.423751336788 9.857998719849 37 64 102 3432 328176
vector 97 spineLeafNetwork.spine2.eth[3].mac passedUpPk:vector(packetBytes) ETV
attr interpolationmode none
attr source packetSentToUpper
attr title "packets passed to higher layer, vector(packetBytes)"
97	191395 979 100 6495 0.423751336788 9.857998719849 37 64 102 3432 328176
vector 98 spineLeafNetwork.spine2.eth[3].encap decapPk:vector(packetBytes) ETV
attr interpolationmode none
attr source decapPk
attr title "packets decapsulated, vector(packetBytes)"
98	192374 951 101 6496 0.423751336788 9.857998719849 37 46 84 2766 216612
vector 99 spineLeafNetwork.spine2.ipv4.arp arpReplySent:vector(packetBytes) ETV
attr source arpReplySent
attr title "ARP replies sent, vector(packetBytes)"
99	193325 304 102 5327 0.423751336788 7.857995679849 12 28 28 336 9408
vector 100 spineLeafNetwork.spine2.eth[3].encap encapPk:vector(packetBytes) ETV
attr interpolationmode none
attr source encapPk
attr title "packets encapsulated, vector(packetBytes)"
100	193629 986 103 6341 0.423751336788 9.84428344409 37 28 84 2604 204624
vector 101 spineLeafNetwork.spine2.eth[3].mac packetReceivedFromUpper:vector(packetBytes) ETV
attr interpolationmode none
attr source packetReceivedFromUpper
attr title "packet bytes from higher layer, vector(packetBytes)"
101	194615 1014 104 6342 0.423751336788 9.84428344409 37 46 102 3270 310356
vector 102 spineLeafNetwork.spine2.eth[3].mac.queue packetPushed:vector(packetBytes) ETV
attr interpolationmode none
attr title "packet pushed, vector(packetBytes)"
102	195629 1014 104 6342 0.423751336788 9.84428344409 37 64 102 3432 328176
vector 103 spineLeafNetwork.spine2.eth[3].mac.queue queueLength:vector ETV
attr interpolationmode sample-hold
attr source "count(packetPushed) - count(packetPopped) - count(packetRemoved) - count(packetDropped)"
attr title "queue length, vector"
103	196643 1898 104 6342 0.423751336788 9.84428344409 74 0 1 37 37
vector 104 spineLeafNetwork.spine2.eth[3].mac.queue packetPopped:vector(packetBytes) ETV
attr interpolationmode none
attr title "packet popped, vector(packetBytes)"
104	198541 1014 104 6342 0.423751336788 9.84428344409 37 64 102 3432 328176
vector 105 spineLeafNetwork.spine2.eth[3].mac.queue queueingTime:vector ETV
attr interpolationmode none
attr source queueingTime(packetPopped)
attr title "queueing times, vector"
attr unit s
105	199555 949 104 6342 0.423751336788 9.84428344409 37 0 0 0 0
vector 106 spineLeafNetwork.spine2.eth[3].mac txPk:vector(packetBytes) ETV
attr interpolationmode none
attr source packetSentToLower
attr title "packets transmitted, vector(packetBytes)"
106	200504 1014 106 6344 0.423757096788 9.84429224409 37 64 102 3432 328176
vector 107 spineLeafNetwork.leaf4.eth[1].mac rxPkOk:vector(packetBytes) ETV
attr interpolationmode none
attr source rxPkOk
attr title "packets received OK, vector(packetBytes)"
107	201518 1014 107 6345 0.423757146788 9.84429229409 37 64 102 3432 328176
vector 108 spineLeafNetwork.leaf4.eth[1].mac passedUpPk:vector(packetBytes) ETV
attr interpolationmode none
attr source packetSentToUpper
attr title "packets passed to higher layer, vector(packetBytes)"
108	202532 1014 107 6345 0.423757146788 9.84429229409 37 64 102 3432 328176
vector 109 spineLeafNetwork.leaf4.eth[1].encap decapPk:vector(packetBytes) ETV
attr interpolationmode none
attr source decapPk
attr title "packets decapsulated, vector(packetBytes)"
109	203546 986 108 6346 0.423757146788 9.84429229409 37 46 84 2766 216612
vector 110 spineLeafNetwork.spine2.ipv4.arp arpRequestSent:vector(packetBytes) ETV
attr source arpRequestSent
attr title "ARP request sent, vector(packetBytes)"
110	204532 26 116 116 0.423765996788 0.423765996788 1 28 28 28 784
vector 111 spineLeafNetwork.spine2.eth[1].encap encapPk:vector(packetBytes) ETV
attr interpolationmode none
attr source encapPk
attr title "packets encapsulated, vector(packetBytes)"
111	204558 374 117 5857 0.423765996788 8.847304837257 14 28 84 1064 86240
vector 112 spineLeafNetwork.spine2.eth[1].mac packetReceivedFromUpper:vector(packetBytes) ETV
attr interpolationmode none
attr source packetReceivedFromUpper
attr title "packet bytes from higher layer, vector(packetBytes)"
112	204932 386 118 5858 0.423765996788 8.847304837257 14 46 102 1316 129080
vector 113 spineLeafNetwork.spine2.eth[1].mac.queue packetPushed:vector(packetBytes) ETV
attr interpolationmode none
attr title "packet pushed, vector(packetBytes)"
113	205318 386 118 5858 0.423765996788 8.847304837257 14 64 102 1352 133040
vector 114 spineLeafNetwork.spine2.eth[1].mac.queue queueLength:vector ETV
attr interpolationmode sample-hold
attr source "count(packetPushed) - count(packetPopped) - count(packetRemoved) - count(packetDropped)"
attr title "queue length, vector"
114	205704 720 118 5858 0.423765996788 8.847304837257 28 0 1 14 14
vector 115 spineLeafNetwork.spine2.eth[1].mac.queue packetPopped:vector(packetBytes) ETV
attr interpolationmode none
attr title "packet popped, vector(packetBytes)"
115	206424 386 118 5858 0.423765996788 8.847304837257 14 64 102 1352 133040
vector 116 spineLeafNetwork.spine2.eth[1].mac.queue queueingTime:vector ETV
attr interpolationmode none
attr source queueingTime(packetPopped)
attr title "queueing times, vector"
attr unit s
116	206810 360 118 5858 0.423765996788 8.847304837257 14 0 0 0 0
vector 117 spineLeafNetwork.spine2.eth[1].mac txPk:vector(packetBytes) ETV
attr interpolationmode none
attr source packetSentToLower
attr title "packets transmitted, vector(packetBytes)"
117	207170 386 120 5860 0.423771756788 8.847313637257 14 64 102 1352 133040
vector 118 spineLeafNetwork.leaf2.eth[1].mac rxPkOk:vector(packetBytes) ETV
attr interpolationmode none
attr source rxPkOk
attr title "packets received OK, vector(packetBytes)"
118	207556 386 121 5861 0.423771806788 8.847313687257 14 64 102 1352 133040
vector 119 spineLeafNetwork.leaf2.eth[1].mac passedUpPk:vector(packetBytes) ETV
attr interpolationmode none
attr source packetSentToUpper
attr title "packets passed to higher layer, vector(packetBytes)"
119	207942 386 121 5861 0.423771806788 8.847313687257 14 64 102 1352 133040
vector 120 spineLeafNetwork.leaf2.eth[1].encap decapPk:vector(packetBytes) ETV
attr interpolationmode none
attr source decapPk
attr title "packets decapsulated, vector(packetBytes)"
120	208328 374 122 5862 0.423771806788 8.847313687257 14 46 84 1100 88904
vector 121 spineLeafNetwork.leaf2.eth[1].encap encapPk:vector(packetBytes) ETV
attr interpolationmode none
attr source encapPk
attr title "packets encapsulated, vector(packetBytes)"
121	208702 347 124 6008 0.423771806788 9.544892027383 13 28 84 980 79184
vector 122 spineLeafNetwork.leaf2.eth[1].mac packetReceivedFromUpper:vector(packetBytes) ETV
attr interpolationmode none
attr source packetReceivedFromUpper
attr title "packet bytes from higher layer, vector(packetBytes)"
122	209049 358 125 6009 0.423771806788 9.544892027383 13 46 102 1214 118676
vector 123 spineLeafNetwork.leaf2.eth[1].mac.queue packetPushed:vector(packetBytes) ETV
attr interpolationmode none
attr title "packet pushed, vector(packetBytes)"
123	209407 358 125 6009 0.423771806788 9.544892027383 13 64 102 1250 122636
vector 124 spineLeafNetwork.leaf2.eth[1].mac.queue queueLength:vector ETV
attr interpolationmode sample-hold
attr source "count(packetPushed) - count(packetPopped) - count(packetRemoved) - count(packetDropped)"
attr title "queue length, vector"
124	209765 668 125 6009 0.423771806788 9.544892027383 26 0 1 13 13
vector 125 spineLeafNetwork.leaf2.eth[1].mac.queue packetPopped:vector(packetBytes) ETV
attr interpolationmode none
attr title "packet popped, vector(packetBytes)"
125	210433 358 125 6009 0.423771806788 9.544892027383 13 64 102 1250 122636
vector 126 spineLeafNetwork.leaf2.eth[1].mac.queue queueingTime:vector ETV
attr interpolationmode none
attr source queueingTime(packetPopped)
attr title "queueing times, vector"
attr unit s
126	210791 334 125 6009 0.423771806788 9.544892027383 13 0 0 0 0
vector 127 spineLeafNetwork.leaf2.eth[1].mac txPk:vector(packetBytes) ETV
attr interpolationmode none
attr source packetSentToLower
attr title "packets transmitted, vector(packetBytes)"
127	211125 358 127 6011 0.423777566788 9.544900827383 13 64 102 1250 122636
vector 128 spineLeafNetwork.spine2.eth[1].mac rxPkOk:vector(packetBytes) ETV
attr interpolationmode none
attr source rxPkOk
attr title "packets received OK, vector(packetBytes)"
128	211483 358 128 6012 0.423777616788 9.544900877383 13 64 102 1250 122636
vector 129 spineLeafNetwork.spine2.eth[1].mac passedUpPk:vector(packetBytes) ETV
attr interpolationmode none
attr source packetSentToUpper
attr title "packets passed to higher layer, vector(packetBytes)"
129	211841 358 128 6012 0.423777616788 9.544900877383 13 64 102 1250 122636
vector 130 spineLeafNetwork.spine2.eth[1].encap decapPk:vector(packetBytes) ETV
attr interpolationmode none
attr source decapPk
attr title "packets decapsulated, vector(packetBytes)"
130	212199 347 129 6013 0.423777616788 9.544900877383 13 46 84 1016 81848
vector 131 spineLeafNetwork.H4.app[0] pingRxSeq:vector ETV
attr interpolationmode none
attr title "ping rx seq, vector"
131	212546 259 145 5997 0.423795316788 9.423725596788 10 0 9 45 285
vector 132 spineLeafNetwork.H4.app[0] rtt:vector ETV
attr interpolationmode none
attr title "ping round-trip time, vector"
attr unit s
132	212805 343 145 5997 0.423795316788 9.423725596788 10 7.08e-005 0.00014052 0.00081258 7.02008796e-008
vector 133 spineLeafNetwork.H6.app[0] pingTxSeq:vector ETV
attr interpolationmode none
attr title "ping tx seq, vector"
133	213148 259 148 6000 0.544883177383 9.544883177383 10 0 9 45 285
vector 134 spineLeafNetwork.H6.ipv4.arp arpRequestSent:vector(packetBytes) ETV
attr source arpRequestSent
attr title "ARP request sent, vector(packetBytes)"
134	213407 26 150 150 0.544883177383 0.544883177383 1 28 28 28 784
vector 135 spineLeafNetwork.H6.eth[0].encap encapPk:vector(packetBytes) ETV
attr interpolationmode none
attr source encapPk
attr title "packets encapsulated, vector(packetBytes)"
135	213433 295 151 6002 0.544883177383 9.544883177383 11 28 84 868 71344
vector 136 spineLeafNetwork.H6.eth[0].mac packetReceivedFromUpper:vector(packetBytes) ETV
attr interpolationmode none
attr source packetReceivedFromUpper
attr title "packet bytes from higher layer, vector(packetBytes)"
136	213728 305 152 6003 0.544883177383 9.544883177383 11 46 102 1066 106156
vector 137 spineLeafNetwork.H6.eth[0].mac.queue packetPushed:vector(packetBytes) ETV
attr interpolationmode none
attr title "packet pushed, vector(packetBytes)"
137	214033 305 152 6003 0.544883177383 9.544883177383 11 64 102 1084 108136
vector 138 spineLeafNetwork.H6.eth[0].mac.queue queueLength:vector ETV
attr interpolationmode sample-hold
attr source "count(packetPushed) - count(packetPopped) - count(packetRemoved) - count(packetDropped)"
attr title "queue length, vector"
138	214338 568 152 6003 0.544883177383 9.544883177383 22 0 1 11 11
vector 139 spineLeafNetwork.H6.eth[0].mac.queue packetPopped:vector(packetBytes) ETV
attr interpolationmode none
attr title "packet popped, vector(packetBytes)"
139	214906 305 152 6003 0.544883177383 9.544883177383 11 64 102 1084 108136
vector 140 spineLeafNetwork.H6.eth[0].mac.queue queueingTime:vector ETV
attr interpolationmode none
attr source queueingTime(packetPopped)
attr title "queueing times, vector"
attr unit s
140	215211 284 152 6003 0.544883177383 9.544883177383 11 0 0 0 0
vector 141 spineLeafNetwork.H6.eth[0].mac txPk:vector(packetBytes) ETV
attr interpolationmode none
attr source packetSentToLower
attr title "packets transmitted, vector(packetBytes)"
141	215495 305 153 6004 0.544888937383 9.544891977383 11 64 102 1084 108136
vector 142 spineLeafNetwork.leaf2.eth[5].mac rxPkOk:vector(packetBytes) ETV
attr interpolationmode none
attr source rxPkOk
attr title "packets received OK, vector(packetBytes)"
142	215800 305 154 6005 0.544888987383 9.544892027383 11 64 102 1084 108136
vector 143 spineLeafNetwork.leaf2.eth[5].mac passedUpPk:vector(packetBytes) ETV
attr interpolationmode none
attr source packetSentToUpper
attr title "packets passed to higher layer, vector(packetBytes)"
143	216105 305 154 6005 0.544888987383 9.544892027383 11 64 102 1084 108136
vector 144 spineLeafNetwork.leaf2.eth[5].encap decapPk:vector(packetBytes) ETV
attr interpolationmode none
attr source decapPk
attr title "packets decapsulated, vector(packetBytes)"
144	216410 295 155 6006 0.544888987383 9.544892027383 11 46 84 886 72676
vector 145 spineLeafNetwork.leaf2.eth[5].encap encapPk:vector(packetBytes) ETV
attr interpolationmode none
attr source encapPk
attr title "packets encapsulated, vector(packetBytes)"
145	216705 295 157 6053 0.544888987383 9.544945127383 11 28 84 868 71344
vector 146 spineLeafNetwork.leaf2.eth[5].mac packetReceivedFromUpper:vector(packetBytes) ETV
attr interpolationmode none
attr source packetReceivedFromUpper
attr title "packet bytes from higher layer, vector(packetBytes)"
146	217000 305 158 6054 0.544888987383 9.544945127383 11 46 102 1066 106156
vector 147 spineLeafNetwork.leaf2.eth[5].mac.queue packetPushed:vector(packetBytes) ETV
attr interpolationmode none
attr title "packet pushed, vector(packetBytes)"
147	217305 305 158 6054 0.544888987383 9.544945127383 11 64 102 1084 108136
vector 148 spineLeafNetwork.leaf2.eth[5].mac.queue queueLength:vector ETV
attr interpolationmode sample-hold
attr source "count(packetPushed) - count(packetPopped) - count(packetRemoved) - count(packetDropped)"
attr title "queue length, vector"
148	217610 568 158 6054 0.544888987383 9.544945127383 22 0 1 11 11
vector 149 spineLeafNetwork.leaf2.eth[5].mac.queue packetPopped:vector(packetBytes) ETV
attr interpolationmode none
attr title "packet popped, vector(packetBytes)"
149	218178 305 158 6054 0.544888987383 9.544945127383 11 64 102 1084 108136
vector 150 spineLeafNetwork.leaf2.eth[5].mac.queue queueingTime:vector ETV
attr interpolationmode none
attr source queueingTime(packetPopped)
attr title "queueing times, vector"
attr unit s
150	218483 284 158 6054 0.544888987383 9.544945127383 11 0 0 0 0
vector 151 spineLeafNetwork.leaf2.eth[5].mac txPk:vector(packetBytes) ETV
attr interpolationmode none
attr source packetSentToLower
attr title "packets transmitted, vector(packetBytes)"
151	218767 305 160 6056 0.544894747383 9.544953927383 11 64 102 1084 108136
vector 152 spineLeafNetwork.H6.eth[0].mac rxPkOk:vector(packetBytes) ETV
attr interpolationmode none
attr source rxPkOk
attr title "packets received OK, vector(packetBytes)"
152	219072 305 161 6057 0.544894797383 9.544953977383 11 64 102 1084 108136
vector 153 spineLeafNetwork.H6.eth[0].mac passedUpPk:vector(packetBytes) ETV
attr interpolationmode none
attr source packetSentToUpper
attr title "packets passed to higher layer, vector(packetBytes)"
153	219377 305 161 6057 0.544894797383 9.544953977383 11 64 102 1084 108136
vector 154 spineLeafNetwork.H6.eth[0].encap decapPk:vector(packetBytes) ETV
attr interpolationmode none
attr source decapPk
attr title "packets decapsulated, vector(packetBytes)"
154	219682 295 162 6058 0.544894797383 9.544953977383 11 46 84 886 72676
vector 155 spineLeafNetwork.H6.app[0] pingRxSeq:vector ETV
attr interpolationmode none
attr title "ping rx seq, vector"
155	219977 259 250 6060 0.544988837383 9.544953977383 10 0 9 45 285
vector 156 spineLeafNetwork.H6.app[0] rtt:vector ETV
attr interpolationmode none
attr title "ping round-trip time, vector"
attr unit s
156	220236 342 250 6060 0.544988837383 9.544953977383 10 7.08e-005 0.00010566 0.0007661 5.98386284e-008
vector 157 spineLeafNetwork.H2.app[0] pingTxSeq:vector ETV
attr interpolationmode none
attr title "ping tx seq, vector"
157	220578 259 253 6063 0.548813502304 9.548813502304 10 0 9 45 285
vector 158 spineLeafNetwork.H2.ipv4.arp arpRequestSent:vector(packetBytes) ETV
attr source arpRequestSent
attr title "ARP request sent, vector(packetBytes)"
158	220837 26 255 255 0.548813502304 0.548813502304 1 28 28 28 784
vector 159 spineLeafNetwork.H2.eth[0].encap encapPk:vector(packetBytes) ETV
attr interpolationmode none
attr source encapPk
attr title "packets encapsulated, vector(packetBytes)"
159	220863 295 256 6065 0.548813502304 9.548813502304 11 28 84 868 71344
vector 160 spineLeafNetwork.H2.eth[0].mac packetReceivedFromUpper:vector(packetBytes) ETV
attr interpolationmode none
attr source packetReceivedFromUpper
attr title "packet bytes from higher layer, vector(packetBytes)"
160	221158 305 257 6066 0.548813502304 9.548813502304 11 46 102 1066 106156
vector 161 spineLeafNetwork.H2.eth[0].mac.queue packetPushed:vector(packetBytes) ETV
attr interpolationmode none
attr title "packet pushed, vector(packetBytes)"
161	221463 305 257 6066 0.548813502304 9.548813502304 11 64 102 1084 108136
vector 162 spineLeafNetwork.H2.eth[0].mac.queue queueLength:vector ETV
attr interpolationmode sample-hold
attr source "count(packetPushed) - count(packetPopped) - count(packetRemoved) - count(packetDropped)"
attr title "queue length, vector"
162	221768 568 257 6066 0.548813502304 9.548813502304 22 0 1 11 11
vector 163 spineLeafNetwork.H2.eth[0].mac.queue packetPopped:vector(packetBytes) ETV
attr interpolationmode none
attr title "packet popped, vector(packetBytes)"
163	222336 305 257 6066 0.548813502304 9.548813502304 11 64 102 1084 108136
vector 164 spineLeafNetwork.H2.eth[0].mac.queue queueingTime:vector ETV
attr interpolationmode none
attr source queueingTime(packetPopped)
attr title "queueing times, vector"
attr unit s
164	222641 284 257 6066 0.548813502304 9.548813502304 11 0 0 0 0
vector 165 spineLeafNetwork.H2.eth[0].mac txPk:vector(packetBytes) ETV
attr interpolationmode none
attr source packetSentToLower
attr title "packets transmitted, vector(packetBytes)"
165	222925 305 258 6067 0.548819262304 9.548822302304 11 64 102 1084 108136
vector 166 spineLeafNetwork.leaf1.eth[4].mac rxPkOk:vector(packetBytes) ETV
attr interpolationmode none
attr source rxPkOk
attr title "packets received OK, vector(packetBytes)"
166	223230 305 259 6068 0.548819312304 9.548822352304 11 64 102 1084 108136
vector 167 spineLeafNetwork.leaf1.eth[4].mac passedUpPk:vector(packetBytes) ETV
attr interpolationmode none
attr source packetSentToUpper
attr title "packets passed to higher layer, vector(packetBytes)"
167	223535 305 259 6068 0.548819312304 9.548822352304 11 64 102 1084 108136
vector 168 spineLeafNetwork.leaf1.eth[4].encap decapPk:vector(packetBytes) ETV
attr interpolationmode none
attr source decapPk
attr title "packets decapsulated, vector(packetBytes)"
168	223840 295 260 6069 0.548819312304 9.548822352304 11 46 84 886 72676
vector 169 spineLeafNetwork.leaf1.ipv4.arp arpReplySent:vector(packetBytes) ETV
attr source arpReplySent
attr title "ARP replies sent, vector(packetBytes)"
169	224135 104 261 617 0.548819312304 0.715195174972 4 28 28 112 3136
vector 170 spineLeafNetwork.leaf1.eth[4].encap encapPk:vector(packetBytes) ETV
attr interpolationmode none
attr source encapPk
attr title "packets encapsulated, vector(packetBytes)"
170	224239 295 262 6116 0.548819312304 9.548875452304 11 28 84 868 71344
vector 171 spineLeafNetwork.leaf1.eth[4].mac packetReceivedFromUpper:vector(packetBytes) ETV
attr interpolationmode none
attr source packetReceivedFromUpper
attr title "packet bytes from higher layer, vector(packetBytes)"
171	224534 305 263 6117 0.548819312304 9.548875452304 11 46 102 1066 106156
vector 172 spineLeafNetwork.leaf1.eth[4].mac.queue packetPushed:vector(packetBytes) ETV
attr interpolationmode none
attr title "packet pushed, vector(packetBytes)"
172	224839 305 263 6117 0.548819312304 9.548875452304 11 64 102 1084 108136
vector 173 spineLeafNetwork.leaf1.eth[4].mac.queue queueLength:vector ETV
attr interpolationmode sample-hold
attr source "count(packetPushed) - count(packetPopped) - count(packetRemoved) - count(packetDropped)"
attr title "queue length, vector"
173	225144 568 263 6117 0.548819312304 9.548875452304 22 0 1 11 11
vector 174 spineLeafNetwork.leaf1.eth[4].mac.queue packetPopped:vector(packetBytes) ETV
attr interpolationmode none
attr title "packet popped, vector(packetBytes)"
174	225712 305 263 6117 0.548819312304 9.548875452304 11 64 102 1084 108136
vector 175 spineLeafNetwork.leaf1.eth[4].mac.queue queueingTime:vector ETV
attr interpolationmode none
attr source queueingTime(packetPopped)
attr title "queueing times, vector"
attr unit s
175	226017 284 263 6117 0.548819312304 9.548875452304 11 0 0 0 0
vector 176 spineLeafNetwork.leaf1.eth[4].mac txPk:vector(packetBytes) ETV
attr interpolationmode none
attr source packetSentToLower
attr title "packets transmitted, vector(packetBytes)"
176	226301 305 265 6119 0.548825072304 9.548884252304 11 64 102 1084 108136
vector 177 spineLeafNetwork.H2.eth[0].mac rxPkOk:vector(packetBytes) ETV
attr interpolationmode none
attr source rxPkOk
attr title "packets received OK, vector(packetBytes)"
177	226606 305 266 6120 0.548825122304 9.548884302304 11 64 102 1084 108136
vector 178 spineLeafNetwork.H2.eth[0].mac passedUpPk:vector(packetBytes) ETV
attr interpolationmode none
attr source packetSentToUpper
attr title "packets passed to higher layer, vector(packetBytes)"
178	226911 305 266 6120 0.548825122304 9.548884302304 11 64 102 1084 108136
vector 179 spineLeafNetwork.H2.eth[0].encap decapPk:vector(packetBytes) ETV
attr interpolationmode none
attr source decapPk
attr title "packets decapsulated, vector(packetBytes)"
179	227216 295 267 6121 0.548825122304 9.548884302304 11 46 84 886 72676
vector 180 spineLeafNetwork.leaf1.ipv4.arp arpRequestSent:vector(packetBytes) ETV
attr source arpRequestSent
attr title "ARP request sent, vector(packetBytes)"
180	227511 78 275 631 0.548833972304 0.715209834972 3 28 28 84 2352
vector 181 spineLeafNetwork.leaf1.eth[0].encap encapPk:vector(packetBytes) ETV
attr interpolationmode none
attr source encapPk
attr title "packets encapsulated, vector(packetBytes)"
181	227589 241 276 5101 0.548833972304 7.715198214972 9 28 84 700 57232
vector 182 spineLeafNetwork.leaf1.eth[0].mac packetReceivedFromUpper:vector(packetBytes) ETV
attr interpolationmode none
attr source packetReceivedFromUpper
attr title "packet bytes from higher layer, vector(packetBytes)"
182	227830 249 277 5102 0.548833972304 7.715198214972 9 46 102 862 85348
vector 183 spineLeafNetwork.leaf1.eth[0].mac.queue packetPushed:vector(packetBytes) ETV
attr interpolationmode none
attr title "packet pushed, vector(packetBytes)"
183	228079 249 277 5102 0.548833972304 7.715198214972 9 64 102 880 87328
vector 184 spineLeafNetwork.leaf1.eth[0].mac.queue queueLength:vector ETV
attr interpolationmode sample-hold
attr source "count(packetPushed) - count(packetPopped) - count(packetRemoved) - count(packetDropped)"
attr title "queue length, vector"
184	228328 464 277 5102 0.548833972304 7.715198214972 18 0 1 9 9
vector 185 spineLeafNetwork.leaf1.eth[0].mac.queue packetPopped:vector(packetBytes) ETV
attr interpolationmode none
attr title "packet popped, vector(packetBytes)"
185	228792 249 277 5102 0.548833972304 7.715198214972 9 64 102 880 87328
vector 186 spineLeafNetwork.leaf1.eth[0].mac.queue queueingTime:vector ETV
attr interpolationmode none
attr source queueingTime(packetPopped)
attr title "queueing times, vector"
attr unit s
186	229041 232 277 5102 0.548833972304 7.715198214972 9 0 0 0 0
vector 187 spineLeafNetwork.leaf1.eth[0].mac txPk:vector(packetBytes) ETV
attr interpolationmode none
attr source packetSentToLower
attr title "packets transmitted, vector(packetBytes)"
187	229273 249 279 5104 0.548839732304 7.715207014972 9 64 102 880 87328
vector 188 spineLeafNetwork.spine1.eth[0].mac rxPkOk:vector(packetBytes) ETV
attr interpolationmode none
attr source rxPkOk
attr title "packets received OK, vector(packetBytes)"
188	229522 249 280 5105 0.548839782304 7.715207064972 9 64 102 880 87328
vector 189 spineLeafNetwork.spine1.eth[0].mac passedUpPk:vector(packetBytes) ETV
attr interpolationmode none
attr source packetSentToUpper
attr title "packets passed to higher layer, vector(packetBytes)"
189	229771 249 280 5105 0.548839782304 7.715207064972 9 64 102 880 87328
vector 190 spineLeafNetwork.spine1.eth[0].encap decapPk:vector(packetBytes) ETV
attr interpolationmode none
attr source decapPk
attr title "packets decapsulated, vector(packetBytes)"
190	230020 241 281 5106 0.548839782304 7.715207064972 9 46 84 718 58564
vector 191 spineLeafNetwork.spine1.ipv4.arp arpReplySent:vector(packetBytes) ETV
attr source arpReplySent
attr title "ARP replies sent, vector(packetBytes)"
191	230261 320 282 4595 0.548839782304 6.84431580409 12 28 28 336 9408
vector 192 spineLeafNetwork.spine1.eth[0].encap encapPk:vector(packetBytes) ETV
attr interpolationmode none
attr source encapPk
attr title "packets encapsulated, vector(packetBytes)"
192	230581 242 283 6109 0.548839782304 9.548866602304 9 28 84 700 57232
vector 193 spineLeafNetwork.spine1.eth[0].mac packetReceivedFromUpper:vector(packetBytes) ETV
attr interpolationmode none
attr source packetReceivedFromUpper
attr title "packet bytes from higher layer, vector(packetBytes)"
193	230823 250 284 6110 0.548839782304 9.548866602304 9 46 102 862 85348
vector 194 spineLeafNetwork.spine1.eth[0].mac.queue packetPushed:vector(packetBytes) ETV
attr interpolationmode none
attr title "packet pushed, vector(packetBytes)"
194	231073 250 284 6110 0.548839782304 9.548866602304 9 64 102 880 87328
vector 195 spineLeafNetwork.spine1.eth[0].mac.queue queueLength:vector ETV
attr interpolationmode sample-hold
attr source "count(packetPushed) - count(packetPopped) - count(packetRemoved) - count(packetDropped)"
attr title "queue length, vector"
195	231323 466 284 6110 0.548839782304 9.548866602304 18 0 1 9 9
vector 196 spineLeafNetwork.spine1.eth[0].mac.queue packetPopped:vector(packetBytes) ETV
attr interpolationmode none
attr title "packet popped, vector(packetBytes)"
196	231789 250 284 6110 0.548839782304 9.548866602304 9 64 102 880 87328
vector 197 spineLeafNetwork.spine1.eth[0].mac.queue queueingTime:vector ETV
attr interpolationmode none
attr source queueingTime(packetPopped)
attr title "queueing times, vector"
attr unit s
197	232039 233 284 6110 0.548839782304 9.548866602304 9 0 0 0 0
vector 198 spineLeafNetwork.spine1.eth[0].mac txPk:vector(packetBytes) ETV
attr interpolationmode none
attr source packetSentToLower
attr title "packets transmitted, vector(packetBytes)"
198	232272 250 286 6112 0.548845542304 9.548875402304 9 64 102 880 87328
vector 199 spineLeafNetwork.leaf1.eth[0].mac rxPkOk:vector(packetBytes) ETV
attr interpolationmode none
attr source rxPkOk
attr title "packets received OK, vector(packetBytes)"
199	232522 250 287 6113 0.548845592304 9.548875452304 9 64 102 880 87328
vector 200 spineLeafNetwork.leaf1.eth[0].mac passedUpPk:vector(packetBytes) ETV
attr interpolationmode none
attr source packetSentToUpper
attr title "packets passed to higher layer, vector(packetBytes)"
200	232772 250 287 6113 0.548845592304 9.548875452304 9 64 102 880 87328
vector 201 spineLeafNetwork.leaf1.eth[0].encap decapPk:vector(packetBytes) ETV
attr interpolationmode none
attr source decapPk
attr title "packets decapsulated, vector(packetBytes)"
201	233022 242 288 6114 0.548845592304 9.548875452304 9 46 84 718 58564
vector 202 spineLeafNetwork.spine1.ipv4.arp arpRequestSent:vector(packetBytes) ETV
attr source arpRequestSent
attr title "ARP request sent, vector(packetBytes)"
202	233264 79 296 1001 0.548854442304 0.858021959849 3 28 28 84 2352
vector 203 spineLeafNetwork.spine1.eth[3].encap encapPk:vector(packetBytes) ETV
attr interpolationmode none
attr source encapPk
attr title "packets encapsulated, vector(packetBytes)"
203	233343 992 297 6467 0.548854442304 9.857963319849 37 28 84 2548 198352
vector 204 spineLeafNetwork.spine1.eth[3].mac packetReceivedFromUpper:vector(packetBytes) ETV
attr interpolationmode none
attr source packetReceivedFromUpper
attr title "packet bytes from higher layer, vector(packetBytes)"
204	234335 1019 298 6468 0.548854442304 9.857963319849 37 46 102 3214 302068
vector 205 spineLeafNetwork.spine1.eth[3].mac.queue packetPushed:vector(packetBytes) ETV
attr interpolationmode none
attr title "packet pushed, vector(packetBytes)"
205	235354 1019 298 6468 0.548854442304 9.857963319849 37 64 102 3394 321868
vector 206 spineLeafNetwork.spine1.eth[3].mac.queue queueLength:vector ETV
attr interpolationmode sample-hold
attr source "count(packetPushed) - count(packetPopped) - count(packetRemoved) - count(packetDropped)"
attr title "queue length, vector"
206	236373 1910 298 6468 0.548854442304 9.857963319849 74 0 1 37 37
vector 207 spineLeafNetwork.spine1.eth[3].mac.queue packetPopped:vector(packetBytes) ETV
attr interpolationmode none
attr title "packet popped, vector(packetBytes)"
207	238283 1019 298 6468 0.548854442304 9.857963319849 37 64 102 3394 321868
vector 208 spineLeafNetwork.spine1.eth[3].mac.queue queueingTime:vector ETV
attr interpolationmode none
attr source queueingTime(packetPopped)
attr title "queueing times, vector"
attr unit s
208	239302 955 298 6468 0.548854442304 9.857963319849 37 0 0 0 0
vector 209 spineLeafNetwork.spine1.eth[3].mac txPk:vector(packetBytes) ETV
attr interpolationmode none
attr source packetSentToLower
attr title "packets transmitted, vector(packetBytes)"
209	240257 1019 300 6470 0.548860202304 9.857972119849 37 64 102 3394 321868
vector 210 spineLeafNetwork.leaf4.eth[0].mac rxPkOk:vector(packetBytes) ETV
attr interpolationmode none
attr source rxPkOk
attr title "packets received OK, vector(packetBytes)"
210	241276 1019 301 6471 0.548860252304 9.857972169849 37 64 102 3394 321868
vector 211 spineLeafNetwork.leaf4.eth[0].mac passedUpPk:vector(packetBytes) ETV
attr interpolationmode none
attr source packetSentToUpper
attr title "packets passed to higher layer, vector(packetBytes)"
211	242295 1019 301 6471 0.548860252304 9.857972169849 37 64 102 3394 321868
vector 212 spineLeafNetwork.leaf4.eth[0].encap decapPk:vector(packetBytes) ETV
attr interpolationmode none
attr source decapPk
attr title "packets decapsulated, vector(packetBytes)"
212	243314 992 302 6472 0.548860252304 9.857972169849 37 46 84 2728 211672
vector 213 spineLeafNetwork.leaf4.eth[0].encap encapPk:vector(packetBytes) ETV
attr interpolationmode none
attr source encapPk
attr title "packets encapsulated, vector(packetBytes)"
213	244306 1072 304 6428 0.548860252304 9.847295987257 40 28 84 2800 219520
vector 214 spineLeafNetwork.leaf4.eth[0].mac packetReceivedFromUpper:vector(packetBytes) ETV
attr interpolationmode none
attr source packetReceivedFromUpper
attr title "packet bytes from higher layer, vector(packetBytes)"
214	245378 1102 305 6429 0.548860252304 9.847295987257 40 46 102 3520 333280
vector 215 spineLeafNetwork.leaf4.eth[0].mac.queue packetPushed:vector(packetBytes) ETV
attr interpolationmode none
attr title "packet pushed, vector(packetBytes)"
215	246480 1102 305 6429 0.548860252304 9.847295987257 40 64 102 3700 353080
vector 216 spineLeafNetwork.leaf4.eth[0].mac.queue queueLength:vector ETV
attr interpolationmode sample-hold
attr source "count(packetPushed) - count(packetPopped) - count(packetRemoved) - count(packetDropped)"
attr title "queue length, vector"
216	247582 2064 305 6429 0.548860252304 9.847295987257 80 0 1 40 40
vector 217 spineLeafNetwork.leaf4.eth[0].mac.queue packetPopped:vector(packetBytes) ETV
attr interpolationmode none
attr title "packet popped, vector(packetBytes)"
217	249646 1102 305 6429 0.548860252304 9.847295987257 40 64 102 3700 353080
vector 218 spineLeafNetwork.leaf4.eth[0].mac.queue queueingTime:vector ETV
attr interpolationmode none
attr source queueingTime(packetPopped)
attr title "queueing times, vector"
attr unit s
218	250748 1032 305 6429 0.548860252304 9.847295987257 40 0 0 0 0
vector 219 spineLeafNetwork.leaf4.eth[0].mac txPk:vector(packetBytes) ETV
attr interpolationmode none
attr source packetSentToLower
attr title "packets transmitted, vector(packetBytes)"
219	251780 1102 307 6431 0.548866012304 9.847304787257 40 64 102 3700 353080
vector 220 spineLeafNetwork.spine1.eth[3].mac rxPkOk:vector(packetBytes) ETV
attr interpolationmode none
attr source rxPkOk
attr title "packets received OK, vector(packetBytes)"
220	252882 1102 308 6432 0.548866062304 9.847304837257 40 64 102 3700 353080
vector 221 spineLeafNetwork.spine1.eth[3].mac passedUpPk:vector(packetBytes) ETV
attr interpolationmode none
attr source packetSentToUpper
attr title "packets passed to higher layer, vector(packetBytes)"
221	253984 1102 308 6432 0.548866062304 9.847304837257 40 64 102 3700 353080
vector 222 spineLeafNetwork.spine1.eth[3].encap decapPk:vector(packetBytes) ETV
attr interpolationmode none
attr source decapPk
attr title "packets decapsulated, vector(packetBytes)"
222	255086 1073 309 6433 0.548866062304 9.847304837257 40 46 84 2980 232840
vector 223 spineLeafNetwork.spine3.eth[0].encap encapPk:vector(packetBytes) ETV
attr interpolationmode none
attr source encapPk
attr title "packets encapsulated, vector(packetBytes)"
223	256159 400 355 6309 0.548913082304 9.715242464972 15 28 84 1148 93296
vector 224 spineLeafNetwork.spine3.eth[0].mac packetReceivedFromUpper:vector(packetBytes) ETV
attr interpolationmode none
attr source packetReceivedFromUpper
attr title "packet bytes from higher layer, vector(packetBytes)"
224	256559 413 356 6310 0.548913082304 9.715242464972 15 46 102 1418 139484
vector 225 spineLeafNetwork.spine3.eth[0].mac.queue packetPushed:vector(packetBytes) ETV
attr interpolationmode none
attr title "packet pushed, vector(packetBytes)"
225	256972 413 356 6310 0.548913082304 9.715242464972 15 64 102 1454 143444
vector 226 spineLeafNetwork.spine3.eth[0].mac.queue queueLength:vector ETV
attr interpolationmode sample-hold
attr source "count(packetPushed) - count(packetPopped) - count(packetRemoved) - count(packetDropped)"
attr title "queue length, vector"
226	257385 770 356 6310 0.548913082304 9.715242464972 30 0 1 15 15
vector 227 spineLeafNetwork.spine3.eth[0].mac.queue packetPopped:vector(packetBytes) ETV
attr interpolationmode none
attr title "packet popped, vector(packetBytes)"
227	258155 413 356 6310 0.548913082304 9.715242464972 15 64 102 1454 143444
vector 228 spineLeafNetwork.spine3.eth[0].mac.queue queueingTime:vector ETV
attr interpolationmode none
attr source queueingTime(packetPopped)
attr title "queueing times, vector"
attr unit s
228	258568 385 356 6310 0.548913082304 9.715242464972 15 0 0 0 0
vector 229 spineLeafNetwork.spine3.eth[0].mac txPk:vector(packetBytes) ETV
attr interpolationmode none
attr source packetSentToLower
attr title "packets transmitted, vector(packetBytes)"
229	258953 413 358 6312 0.548918842304 9.715251264972 15 64 102 1454 143444
vector 230 spineLeafNetwork.leaf1.eth[2].mac rxPkOk:vector(packetBytes) ETV
attr interpolationmode none
attr source rxPkOk
attr title "packets received OK, vector(packetBytes)"
230	259366 413 359 6313 0.548918892304 9.715251314972 15 64 102 1454 143444
vector 231 spineLeafNetwork.leaf1.eth[2].mac passedUpPk:vector(packetBytes) ETV
attr interpolationmode none
attr source packetSentToUpper
attr title "packets passed to higher layer, vector(packetBytes)"
231	259779 413 359 6313 0.548918892304 9.715251314972 15 64 102 1454 143444
vector 232 spineLeafNetwork.leaf1.eth[2].encap decapPk:vector(packetBytes) ETV
attr interpolationmode none
attr source decapPk
attr title "packets decapsulated, vector(packetBytes)"
232	260192 400 360 6314 0.548918892304 9.715251314972 15 46 84 1184 95960
vector 233 spineLeafNetwork.leaf1.eth[2].encap encapPk:vector(packetBytes) ETV
attr interpolationmode none
attr source encapPk
attr title "packets encapsulated, vector(packetBytes)"
233	260592 375 362 6208 0.548918892304 9.623572546397 14 28 84 1064 86240
vector 234 spineLeafNetwork.leaf1.eth[2].mac packetReceivedFromUpper:vector(packetBytes) ETV
attr interpolationmode none
attr source packetReceivedFromUpper
attr title "packet bytes from higher layer, vector(packetBytes)"
234	260967 387 363 6209 0.548918892304 9.623572546397 14 46 102 1316 129080
vector 235 spineLeafNetwork.leaf1.eth[2].mac.queue packetPushed:vector(packetBytes) ETV
attr interpolationmode none
attr title "packet pushed, vector(packetBytes)"
235	261354 387 363 6209 0.548918892304 9.623572546397 14 64 102 1352 133040
vector 236 spineLeafNetwork.leaf1.eth[2].mac.queue queueLength:vector ETV
attr interpolationmode sample-hold
attr source "count(packetPushed) - count(packetPopped) - count(packetRemoved) - count(packetDropped)"
attr title "queue length, vector"
236	261741 722 363 6209 0.548918892304 9.623572546397 28 0 1 14 14
vector 237 spineLeafNetwork.leaf1.eth[2].mac.queue packetPopped:vector(packetBytes) ETV
attr interpolationmode none
attr title "packet popped, vector(packetBytes)"
237	262463 387 363 6209 0.548918892304 9.623572546397 14 64 102 1352 133040
vector 238 spineLeafNetwork.leaf1.eth[2].mac.queue queueingTime:vector ETV
attr interpolationmode none
attr source queueingTime(packetPopped)
attr title "queueing times, vector"
attr unit s
238	262850 361 363 6209 0.548918892304 9.623572546397 14 0 0 0 0
vector 239 spineLeafNetwork.leaf1.eth[2].mac txPk:vector(packetBytes) ETV
attr interpolationmode none
attr source packetSentToLower
attr title "packets transmitted, vector(packetBytes)"
239	263211 387 365 6211 0.548924652304 9.623581346397 14 64 102 1352 133040
vector 240 spineLeafNetwork.spine3.eth[0].mac rxPkOk:vector(packetBytes) ETV
attr interpolationmode none
attr source rxPkOk
attr title "packets received OK, vector(packetBytes)"
240	263598 387 366 6212 0.548924702304 9.623581396397 14 64 102 1352 133040
vector 241 spineLeafNetwork.spine3.eth[0].mac passedUpPk:vector(packetBytes) ETV
attr interpolationmode none
attr source packetSentToUpper
attr title "packets passed to higher layer, vector(packetBytes)"
241	263985 387 366 6212 0.548924702304 9.623581396397 14 64 102 1352 133040
vector 242 spineLeafNetwork.spine3.eth[0].encap decapPk:vector(packetBytes) ETV
attr interpolationmode none
attr source decapPk
attr title "packets decapsulated, vector(packetBytes)"
242	264372 375 367 6213 0.548924702304 9.623581396397 14 46 84 1100 88904
vector 243 spineLeafNetwork.H2.app[0] pingRxSeq:vector ETV
attr interpolationmode none
attr title "ping rx seq, vector"
243	264747 259 383 6123 0.548942402304 9.548884302304 10 0 9 45 285
vector 244 spineLeafNetwork.H2.app[0] rtt:vector ETV
attr interpolationmode none
attr title "ping round-trip time, vector"
attr unit s
244	265006 341 383 6123 0.548942402304 9.548884302304 10 7.08e-005 0.0001289 0.00078934 6.52898028e-008
vector 245 spineLeafNetwork.H9.app[0] pingTxSeq:vector ETV
attr interpolationmode none
attr title "ping tx seq, vector"
245	265347 259 386 6126 0.592844616389 9.592844616389 10 0 9 45 285
vector 246 spineLeafNetwork.H9.ipv4.arp arpRequestSent:vector(packetBytes) ETV
attr source arpRequestSent
attr title "ARP request sent, vector(packetBytes)"
246	265606 26 388 388 0.592844616389 0.592844616389 1 28 28 28 784
vector 247 spineLeafNetwork.H9.eth[0].encap encapPk:vector(packetBytes) ETV
attr interpolationmode none
attr source encapPk
attr title "packets encapsulated, vector(packetBytes)"
247	265632 295 389 6128 0.592844616389 9.592844616389 11 28 84 868 71344
vector 248 spineLeafNetwork.H9.eth[0].mac packetReceivedFromUpper:vector(packetBytes) ETV
attr interpolationmode none
attr source packetReceivedFromUpper
attr title "packet bytes from higher layer, vector(packetBytes)"
248	265927 305 390 6129 0.592844616389 9.592844616389 11 46 102 1066 106156
vector 249 spineLeafNetwork.H9.eth[0].mac.queue packetPushed:vector(packetBytes) ETV
attr interpolationmode none
attr title "packet pushed, vector(packetBytes)"
249	266232 305 390 6129 0.592844616389 9.592844616389 11 64 102 1084 108136
vector 250 spineLeafNetwork.H9.eth[0].mac.queue queueLength:vector ETV
attr interpolationmode sample-hold
attr source "count(packetPushed) - count(packetPopped) - count(packetRemoved) - count(packetDropped)"
attr title "queue length, vector"
250	266537 568 390 6129 0.592844616389 9.592844616389 22 0 1 11 11
vector 251 spineLeafNetwork.H9.eth[0].mac.queue packetPopped:vector(packetBytes) ETV
attr interpolationmode none
attr title "packet popped, vector(packetBytes)"
251	267105 305 390 6129 0.592844616389 9.592844616389 11 64 102 1084 108136
vector 252 spineLeafNetwork.H9.eth[0].mac.queue queueingTime:vector ETV
attr interpolationmode none
attr source queueingTime(packetPopped)
attr title "queueing times, vector"
attr unit s
252	267410 284 390 6129 0.592844616389 9.592844616389 11 0 0 0 0
vector 253 spineLeafNetwork.H9.eth[0].mac txPk:vector(packetBytes) ETV
attr interpolationmode none
attr source packetSentToLower
attr title "packets transmitted, vector(packetBytes)"
253	267694 305 391 6130 0.592850376389 9.592853416389 11 64 102 1084 108136
vector 254 spineLeafNetwork.leaf3.eth[5].mac rxPkOk:vector(packetBytes) ETV
attr interpolationmode none
attr source rxPkOk
attr title "packets received OK, vector(packetBytes)"
254	267999 305 392 6131 0.592850426389 9.592853466389 11 64 102 1084 108136
vector 255 spineLeafNetwork.leaf3.eth[5].mac passedUpPk:vector(packetBytes) ETV
attr interpolationmode none
attr source packetSentToUpper
attr title "packets passed to higher layer, vector(packetBytes)"
255	268304 305 392 6131 0.592850426389 9.592853466389 11 64 102 1084 108136
vector 256 spineLeafNetwork.leaf3.eth[5].encap decapPk:vector(packetBytes) ETV
attr interpolationmode none
attr source decapPk
attr title "packets decapsulated, vector(packetBytes)"
256	268609 295 393 6132 0.592850426389 9.592853466389 11 46 84 886 72676
vector 257 spineLeafNetwork.leaf3.ipv4.arp arpReplySent:vector(packetBytes) ETV
attr source arpReplySent
attr title "ARP replies sent, vector(packetBytes)"
257	268904 104 394 1008 0.592850426389 0.858027769849 4 28 28 112 3136
vector 258 spineLeafNetwork.leaf3.eth[5].encap encapPk:vector(packetBytes) ETV
attr interpolationmode none
attr source encapPk
attr title "packets encapsulated, vector(packetBytes)"
258	269008 295 395 6179 0.592850426389 9.592906566389 11 28 84 868 71344
vector 259 spineLeafNetwork.leaf3.eth[5].mac packetReceivedFromUpper:vector(packetBytes) ETV
attr interpolationmode none
attr source packetReceivedFromUpper
attr title "packet bytes from higher layer, vector(packetBytes)"
259	269303 305 396 6180 0.592850426389 9.592906566389 11 46 102 1066 106156
vector 260 spineLeafNetwork.leaf3.eth[5].mac.queue packetPushed:vector(packetBytes) ETV
attr interpolationmode none
attr title "packet pushed, vector(packetBytes)"
260	269608 305 396 6180 0.592850426389 9.592906566389 11 64 102 1084 108136
vector 261 spineLeafNetwork.leaf3.eth[5].mac.queue queueLength:vector ETV
attr interpolationmode sample-hold
attr source "count(packetPushed) - count(packetPopped) - count(packetRemoved) - count(packetDropped)"
attr title "queue length, vector"
261	269913 568 396 6180 0.592850426389 9.592906566389 22 0 1 11 11
vector 262 spineLeafNetwork.leaf3.eth[5].mac.queue packetPopped:vector(packetBytes) ETV
attr interpolationmode none
attr title "packet popped, vector(packetBytes)"
262	270481 305 396 6180 0.592850426389 9.592906566389 11 64 102 1084 108136
vector 263 spineLeafNetwork.leaf3.eth[5].mac.queue queueingTime:vector ETV
attr interpolationmode none
attr source queueingTime(packetPopped)
attr title "queueing times, vector"
attr unit s
263	270786 284 396 6180 0.592850426389 9.592906566389 11 0 0 0 0
vector 264 spineLeafNetwork.leaf3.eth[5].mac txPk:vector(packetBytes) ETV
attr interpolationmode none
attr source packetSentToLower
attr title "packets transmitted, vector(packetBytes)"
264	271070 305 398 6182 0.592856186389 9.592915366389 11 64 102 1084 108136
vector 265 spineLeafNetwork.H9.eth[0].mac rxPkOk:vector(packetBytes) ETV
attr interpolationmode none
attr source rxPkOk
attr title "packets received OK, vector(packetBytes)"
265	271375 305 399 6183 0.592856236389 9.592915416389 11 64 102 1084 108136
vector 266 spineLeafNetwork.H9.eth[0].mac passedUpPk:vector(packetBytes) ETV
attr interpolationmode none
attr source packetSentToUpper
attr title "packets passed to higher layer, vector(packetBytes)"
266	271680 305 399 6183 0.592856236389 9.592915416389 11 64 102 1084 108136
vector 267 spineLeafNetwork.H9.eth[0].encap decapPk:vector(packetBytes) ETV
attr interpolationmode none
attr source decapPk
attr title "packets decapsulated, vector(packetBytes)"
267	271985 295 400 6184 0.592856236389 9.592915416389 11 46 84 886 72676
vector 268 spineLeafNetwork.leaf3.ipv4.arp arpRequestSent:vector(packetBytes) ETV
attr source arpRequestSent
attr title "ARP request sent, vector(packetBytes)"
268	272280 78 408 1257 0.592865086389 1.592853466389 3 28 28 84 2352
vector 269 spineLeafNetwork.leaf3.eth[2].encap encapPk:vector(packetBytes) ETV
attr interpolationmode none
attr source encapPk
attr title "packets encapsulated, vector(packetBytes)"
269	272358 372 409 6134 0.592865086389 9.592853466389 14 28 84 1120 92512
vector 270 spineLeafNetwork.leaf3.eth[2].mac packetReceivedFromUpper:vector(packetBytes) ETV
attr interpolationmode none
attr source packetReceivedFromUpper
attr title "packet bytes from higher layer, vector(packetBytes)"
270	272730 385 410 6135 0.592865086389 9.592853466389 14 46 102 1372 137368
vector 271 spineLeafNetwork.leaf3.eth[2].mac.queue packetPushed:vector(packetBytes) ETV
attr interpolationmode none
attr title "packet pushed, vector(packetBytes)"
271	273115 385 410 6135 0.592865086389 9.592853466389 14 64 102 1390 139348
vector 272 spineLeafNetwork.leaf3.eth[2].mac.queue queueLength:vector ETV
attr interpolationmode sample-hold
attr source "count(packetPushed) - count(packetPopped) - count(packetRemoved) - count(packetDropped)"
attr title "queue length, vector"
272	273500 716 410 6135 0.592865086389 9.592853466389 28 0 1 14 14
vector 273 spineLeafNetwork.leaf3.eth[2].mac.queue packetPopped:vector(packetBytes) ETV
attr interpolationmode none
attr title "packet popped, vector(packetBytes)"
273	274216 385 410 6135 0.592865086389 9.592853466389 14 64 102 1390 139348
vector 274 spineLeafNetwork.leaf3.eth[2].mac.queue queueingTime:vector ETV
attr interpolationmode none
attr source queueingTime(packetPopped)
attr title "queueing times, vector"
attr unit s
274	274601 358 410 6135 0.592865086389 9.592853466389 14 0 0 0 0
vector 275 spineLeafNetwork.leaf3.eth[2].mac txPk:vector(packetBytes) ETV
attr interpolationmode none
attr source packetSentToLower
attr title "packets transmitted, vector(packetBytes)"
275	274959 385 412 6137 0.592870846389 9.592862266389 14 64 102 1390 139348
vector 276 spineLeafNetwork.spine3.eth[2].mac rxPkOk:vector(packetBytes) ETV
attr interpolationmode none
attr source rxPkOk
attr title "packets received OK, vector(packetBytes)"
276	275344 385 413 6138 0.592870896389 9.592862316389 14 64 102 1390 139348
vector 277 spineLeafNetwork.spine3.eth[2].mac passedUpPk:vector(packetBytes) ETV
attr interpolationmode none
attr source packetSentToUpper
attr title "packets passed to higher layer, vector(packetBytes)"
277	275729 385 413 6138 0.592870896389 9.592862316389 14 64 102 1390 139348
vector 278 spineLeafNetwork.spine3.eth[2].encap decapPk:vector(packetBytes) ETV
attr interpolationmode none
attr source decapPk
attr title "packets decapsulated, vector(packetBytes)"
278	276114 372 414 6139 0.592870896389 9.592862316389 14 46 84 1138 93844
vector 279 spineLeafNetwork.spine3.eth[2].encap encapPk:vector(packetBytes) ETV
attr interpolationmode none
attr source encapPk
attr title "packets encapsulated, vector(packetBytes)"
279	276486 345 416 6372 0.592870896389 9.84431884409 13 28 84 1036 85456
vector 280 spineLeafNetwork.spine3.eth[2].mac packetReceivedFromUpper:vector(packetBytes) ETV
attr interpolationmode none
attr source packetReceivedFromUpper
attr title "packet bytes from higher layer, vector(packetBytes)"
280	276831 357 417 6373 0.592870896389 9.84431884409 13 46 102 1270 126964
vector 281 spineLeafNetwork.spine3.eth[2].mac.queue packetPushed:vector(packetBytes) ETV
attr interpolationmode none
attr title "packet pushed, vector(packetBytes)"
281	277188 357 417 6373 0.592870896389 9.84431884409 13 64 102 1288 128944
vector 282 spineLeafNetwork.spine3.eth[2].mac.queue queueLength:vector ETV
attr interpolationmode sample-hold
attr source "count(packetPushed) - count(packetPopped) - count(packetRemoved) - count(packetDropped)"
attr title "queue length, vector"
282	277545 664 417 6373 0.592870896389 9.84431884409 26 0 1 13 13
vector 283 spineLeafNetwork.spine3.eth[2].mac.queue packetPopped:vector(packetBytes) ETV
attr interpolationmode none
attr title "packet popped, vector(packetBytes)"
283	278209 357 417 6373 0.592870896389 9.84431884409 13 64 102 1288 128944
vector 284 spineLeafNetwork.spine3.eth[2].mac.queue queueingTime:vector ETV
attr interpolationmode none
attr source queueingTime(packetPopped)
attr title "queueing times, vector"
attr unit s
284	278566 332 417 6373 0.592870896389 9.84431884409 13 0 0 0 0
vector 285 spineLeafNetwork.spine3.eth[2].mac txPk:vector(packetBytes) ETV
attr interpolationmode none
attr source packetSentToLower
attr title "packets transmitted, vector(packetBytes)"
285	278898 357 419 6375 0.592876656389 9.84432764409 13 64 102 1288 128944
vector 286 spineLeafNetwork.leaf3.eth[2].mac rxPkOk:vector(packetBytes) ETV
attr interpolationmode none
attr source rxPkOk
attr title "packets received OK, vector(packetBytes)"
286	279255 357 420 6376 0.592876706389 9.84432769409 13 64 102 1288 128944
vector 287 spineLeafNetwork.leaf3.eth[2].mac passedUpPk:vector(packetBytes) ETV
attr interpolationmode none
attr source packetSentToUpper
attr title "packets passed to higher layer, vector(packetBytes)"
287	279612 357 420 6376 0.592876706389 9.84432769409 13 64 102 1288 128944
vector 288 spineLeafNetwork.leaf3.eth[2].encap decapPk:vector(packetBytes) ETV
attr interpolationmode none
attr source decapPk
attr title "packets decapsulated, vector(packetBytes)"
288	279969 345 421 6377 0.592876706389 9.84432769409 13 46 84 1054 86788
vector 289 spineLeafNetwork.H9.app[0] pingRxSeq:vector ETV
attr interpolationmode none
attr title "ping rx seq, vector"
289	280314 259 488 6186 0.592950276389 9.592915416389 10 0 9 45 285
vector 290 spineLeafNetwork.H9.app[0] rtt:vector ETV
attr interpolationmode none
attr title "ping round-trip time, vector"
attr unit s
290	280573 342 488 6186 0.592950276389 9.592915416389 10 7.08e-005 0.00010566 0.00077772 6.18890936e-008
vector 291 spineLeafNetwork.H10.app[0] pingTxSeq:vector ETV
attr interpolationmode none
attr title "ping tx seq, vector"
291	280915 259 491 6189 0.602763370378 9.602763370378 10 0 9 45 285
vector 292 spineLeafNetwork.H10.lo[0].lo rcvdPkFromHl:vector(packetBytes) ETV
attr interpolationmode none
attr source packetReceivedFromUpper
attr title "packets received from higher layer, vector(packetBytes)"
292	281174 538 494 6196 0.602763370378 9.602763370378 20 84 84 1680 141120
vector 293 spineLeafNetwork.H10.lo[0].lo passedUpPk:vector(packetBytes) ETV
attr interpolationmode none
attr source packetSentToUpper
attr title "packets passed to higher layer, vector(packetBytes)"
293	281712 538 494 6196 0.602763370378 9.602763370378 20 84 84 1680 141120
vector 294 spineLeafNetwork.H10.app[0] pingRxSeq:vector ETV
attr interpolationmode none
attr title "ping rx seq, vector"
294	282250 259 501 6198 0.602763370378 9.602763370378 10 0 9 45 285
vector 295 spineLeafNetwork.H1.app[0] pingTxSeq:vector ETV
attr interpolationmode none
attr title "ping tx seq, vector"
295	282509 259 503 6200 0.623563696397 9.623563696397 10 0 9 45 285
vector 296 spineLeafNetwork.H1.ipv4.arp arpRequestSent:vector(packetBytes) ETV
attr source arpRequestSent
attr title "ARP request sent, vector(packetBytes)"
296	282768 26 505 505 0.623563696397 0.623563696397 1 28 28 28 784
vector 297 spineLeafNetwork.H1.eth[0].encap encapPk:vector(packetBytes) ETV
attr interpolationmode none
attr source encapPk
attr title "packets encapsulated, vector(packetBytes)"
297	282794 295 506 6202 0.623563696397 9.623563696397 11 28 84 868 71344
vector 298 spineLeafNetwork.H1.eth[0].mac packetReceivedFromUpper:vector(packetBytes) ETV
attr interpolationmode none
attr source packetReceivedFromUpper
attr title "packet bytes from higher layer, vector(packetBytes)"
298	283089 305 507 6203 0.623563696397 9.623563696397 11 46 102 1066 106156
vector 299 spineLeafNetwork.H1.eth[0].mac.queue packetPushed:vector(packetBytes) ETV
attr interpolationmode none
attr title "packet pushed, vector(packetBytes)"
299	283394 305 507 6203 0.623563696397 9.623563696397 11 64 102 1084 108136
vector 300 spineLeafNetwork.H1.eth[0].mac.queue queueLength:vector ETV
attr interpolationmode sample-hold
attr source "count(packetPushed) - count(packetPopped) - count(packetRemoved) - count(packetDropped)"
attr title "queue length, vector"
300	283699 568 507 6203 0.623563696397 9.623563696397 22 0 1 11 11
vector 301 spineLeafNetwork.H1.eth[0].mac.queue packetPopped:vector(packetBytes) ETV
attr interpolationmode none
attr title "packet popped, vector(packetBytes)"
301	284267 305 507 6203 0.623563696397 9.623563696397 11 64 102 1084 108136
vector 302 spineLeafNetwork.H1.eth[0].mac.queue queueingTime:vector ETV
attr interpolationmode none
attr source queueingTime(packetPopped)
attr title "queueing times, vector"
attr unit s
302	284572 284 507 6203 0.623563696397 9.623563696397 11 0 0 0 0
vector 303 spineLeafNetwork.H1.eth[0].mac txPk:vector(packetBytes) ETV
attr interpolationmode none
attr source packetSentToLower
attr title "packets transmitted, vector(packetBytes)"
303	284856 305 508 6204 0.623569456397 9.623572496397 11 64 102 1084 108136
vector 304 spineLeafNetwork.leaf1.eth[3].mac rxPkOk:vector(packetBytes) ETV
attr interpolationmode none
attr source rxPkOk
attr title "packets received OK, vector(packetBytes)"
304	285161 305 509 6205 0.623569506397 9.623572546397 11 64 102 1084 108136
vector 305 spineLeafNetwork.leaf1.eth[3].mac passedUpPk:vector(packetBytes) ETV
attr interpolationmode none
attr source packetSentToUpper
[...]
attr interpolationmode none
attr source decapPk
attr title "packets decapsulated, vector(packetBytes)"
418	318666 295 828 6395 0.847257547257 9.847260587257 11 46 84 886 72676
vector 419 spineLeafNetwork.leaf2.eth[4].encap encapPk:vector(packetBytes) ETV
attr interpolationmode none
attr source encapPk
attr title "packets encapsulated, vector(packetBytes)"
419	318961 295 830 6442 0.847257547257 9.847313687257 11 28 84 868 71344
vector 420 spineLeafNetwork.leaf2.eth[4].mac packetReceivedFromUpper:vector(packetBytes) ETV
attr interpolationmode none
attr source packetReceivedFromUpper
attr title "packet bytes from higher layer, vector(packetBytes)"
420	319256 305 831 6443 0.847257547257 9.847313687257 11 46 102 1066 106156
vector 421 spineLeafNetwork.leaf2.eth[4].mac.queue packetPushed:vector(packetBytes) ETV
attr interpolationmode none
attr title "packet pushed, vector(packetBytes)"
421	319561 305 831 6443 0.847257547257 9.847313687257 11 64 102 1084 108136
vector 422 spineLeafNetwork.leaf2.eth[4].mac.queue queueLength:vector ETV
attr interpolationmode sample-hold
attr source "count(packetPushed) - count(packetPopped) - count(packetRemoved) - count(packetDropped)"
attr title "queue length, vector"
422	319866 568 831 6443 0.847257547257 9.847313687257 22 0 1 11 11
vector 423 spineLeafNetwork.leaf2.eth[4].mac.queue packetPopped:vector(packetBytes) ETV
attr interpolationmode none
attr title "packet popped, vector(packetBytes)"
423	320434 305 831 6443 0.847257547257 9.847313687257 11 64 102 1084 108136
vector 424 spineLeafNetwork.leaf2.eth[4].mac.queue queueingTime:vector ETV
attr interpolationmode none
attr source queueingTime(packetPopped)
attr title "queueing times, vector"
attr unit s
424	320739 284 831 6443 0.847257547257 9.847313687257 11 0 0 0 0
vector 425 spineLeafNetwork.leaf2.eth[4].mac txPk:vector(packetBytes) ETV
attr interpolationmode none
attr source packetSentToLower
attr title "packets transmitted, vector(packetBytes)"
425	321023 305 833 6445 0.847263307257 9.847322487257 11 64 102 1084 108136
vector 426 spineLeafNetwork.H5.eth[0].mac rxPkOk:vector(packetBytes) ETV
attr interpolationmode none
attr source rxPkOk
attr title "packets received OK, vector(packetBytes)"
426	321328 305 834 6446 0.847263357257 9.847322537257 11 64 102 1084 108136
vector 427 spineLeafNetwork.H5.eth[0].mac passedUpPk:vector(packetBytes) ETV
attr interpolationmode none
attr source packetSentToUpper
attr title "packets passed to higher layer, vector(packetBytes)"
427	321633 305 834 6446 0.847263357257 9.847322537257 11 64 102 1084 108136
vector 428 spineLeafNetwork.H5.eth[0].encap decapPk:vector(packetBytes) ETV
attr interpolationmode none
attr source decapPk
attr title "packets decapsulated, vector(packetBytes)"
428	321938 295 835 6447 0.847263357257 9.847322537257 11 46 84 886 72676
vector 429 spineLeafNetwork.spine1.eth[1].encap encapPk:vector(packetBytes) ETV
attr interpolationmode none
attr source encapPk
attr title "packets encapsulated, vector(packetBytes)"
429	322233 349 896 6435 0.847328077257 9.847304837257 13 28 84 980 79184
vector 430 spineLeafNetwork.spine1.eth[1].mac packetReceivedFromUpper:vector(packetBytes) ETV
attr interpolationmode none
attr source packetReceivedFromUpper
attr title "packet bytes from higher layer, vector(packetBytes)"
430	322582 360 897 6436 0.847328077257 9.847304837257 13 46 102 1214 118676
vector 431 spineLeafNetwork.spine1.eth[1].mac.queue packetPushed:vector(packetBytes) ETV
attr interpolationmode none
attr title "packet pushed, vector(packetBytes)"
431	322942 360 897 6436 0.847328077257 9.847304837257 13 64 102 1250 122636
vector 432 spineLeafNetwork.spine1.eth[1].mac.queue queueLength:vector ETV
attr interpolationmode sample-hold
attr source "count(packetPushed) - count(packetPopped) - count(packetRemoved) - count(packetDropped)"
attr title "queue length, vector"
432	323302 672 897 6436 0.847328077257 9.847304837257 26 0 1 13 13
vector 433 spineLeafNetwork.spine1.eth[1].mac.queue packetPopped:vector(packetBytes) ETV
attr interpolationmode none
attr title "packet popped, vector(packetBytes)"
433	323974 360 897 6436 0.847328077257 9.847304837257 13 64 102 1250 122636
vector 434 spineLeafNetwork.spine1.eth[1].mac.queue queueingTime:vector ETV
attr interpolationmode none
attr source queueingTime(packetPopped)
attr title "queueing times, vector"
attr unit s
434	324334 336 897 6436 0.847328077257 9.847304837257 13 0 0 0 0
vector 435 spineLeafNetwork.spine1.eth[1].mac txPk:vector(packetBytes) ETV
attr interpolationmode none
attr source packetSentToLower
attr title "packets transmitted, vector(packetBytes)"
435	324670 360 899 6438 0.847333837257 9.847313637257 13 64 102 1250 122636
vector 436 spineLeafNetwork.leaf2.eth[0].mac rxPkOk:vector(packetBytes) ETV
attr interpolationmode none
attr source rxPkOk
attr title "packets received OK, vector(packetBytes)"
436	325030 360 900 6439 0.847333887257 9.847313687257 13 64 102 1250 122636
vector 437 spineLeafNetwork.leaf2.eth[0].mac passedUpPk:vector(packetBytes) ETV
attr interpolationmode none
attr source packetSentToUpper
attr title "packets passed to higher layer, vector(packetBytes)"
437	325390 360 900 6439 0.847333887257 9.847313687257 13 64 102 1250 122636
vector 438 spineLeafNetwork.leaf2.eth[0].encap decapPk:vector(packetBytes) ETV
attr interpolationmode none
attr source decapPk
attr title "packets decapsulated, vector(packetBytes)"
438	325750 349 901 6440 0.847333887257 9.847313687257 13 46 84 1016 81848
vector 439 spineLeafNetwork.leaf2.eth[0].encap encapPk:vector(packetBytes) ETV
attr interpolationmode none
attr source encapPk
attr title "packets encapsulated, vector(packetBytes)"
439	326099 296 903 5430 0.847333887257 8.544892027383 11 28 84 812 65072
vector 440 spineLeafNetwork.leaf2.eth[0].mac packetReceivedFromUpper:vector(packetBytes) ETV
attr interpolationmode none
attr source packetReceivedFromUpper
attr title "packet bytes from higher layer, vector(packetBytes)"
440	326395 305 904 5431 0.847333887257 8.544892027383 11 46 102 1010 97868
vector 441 spineLeafNetwork.leaf2.eth[0].mac.queue packetPushed:vector(packetBytes) ETV
attr interpolationmode none
attr title "packet pushed, vector(packetBytes)"
441	326700 305 904 5431 0.847333887257 8.544892027383 11 64 102 1046 101828
vector 442 spineLeafNetwork.leaf2.eth[0].mac.queue queueLength:vector ETV
attr interpolationmode sample-hold
attr source "count(packetPushed) - count(packetPopped) - count(packetRemoved) - count(packetDropped)"
attr title "queue length, vector"
442	327005 570 904 5431 0.847333887257 8.544892027383 22 0 1 11 11
vector 443 spineLeafNetwork.leaf2.eth[0].mac.queue packetPopped:vector(packetBytes) ETV
attr interpolationmode none
attr title "packet popped, vector(packetBytes)"
443	327575 305 904 5431 0.847333887257 8.544892027383 11 64 102 1046 101828
vector 444 spineLeafNetwork.leaf2.eth[0].mac.queue queueingTime:vector ETV
attr interpolationmode none
attr source queueingTime(packetPopped)
attr title "queueing times, vector"
attr unit s
444	327880 285 904 5431 0.847333887257 8.544892027383 11 0 0 0 0
vector 445 spineLeafNetwork.leaf2.eth[0].mac txPk:vector(packetBytes) ETV
attr interpolationmode none
attr source packetSentToLower
attr title "packets transmitted, vector(packetBytes)"
445	328165 305 906 5433 0.847339647257 8.544900827383 11 64 102 1046 101828
vector 446 spineLeafNetwork.spine1.eth[1].mac rxPkOk:vector(packetBytes) ETV
attr interpolationmode none
attr source rxPkOk
attr title "packets received OK, vector(packetBytes)"
446	328470 305 907 5434 0.847339697257 8.544900877383 11 64 102 1046 101828
vector 447 spineLeafNetwork.spine1.eth[1].mac passedUpPk:vector(packetBytes) ETV
attr interpolationmode none
attr source packetSentToUpper
attr title "packets passed to higher layer, vector(packetBytes)"
447	328775 305 907 5434 0.847339697257 8.544900877383 11 64 102 1046 101828
vector 448 spineLeafNetwork.spine1.eth[1].encap decapPk:vector(packetBytes) ETV
attr interpolationmode none
attr source decapPk
attr title "packets decapsulated, vector(packetBytes)"
448	329080 296 908 5435 0.847339697257 8.544900877383 11 46 84 848 67736
vector 449 spineLeafNetwork.H5.app[0] pingRxSeq:vector ETV
attr interpolationmode none
attr title "ping rx seq, vector"
449	329376 259 924 6449 0.847357397257 9.847322537257 10 0 9 45 285
vector 450 spineLeafNetwork.H5.app[0] rtt:vector ETV
attr interpolationmode none
attr title "ping round-trip time, vector"
attr unit s
450	329635 342 924 6449 0.847357397257 9.847322537257 10 7.08e-005 0.00010566 0.0007661 5.98386284e-008
vector 451 spineLeafNetwork.H8.app[0] pingTxSeq:vector ETV
attr interpolationmode none
attr title "ping tx seq, vector"
451	329977 259 927 6452 0.857945619849 9.857945619849 10 0 9 45 285
vector 452 spineLeafNetwork.H8.ipv4.arp arpRequestSent:vector(packetBytes) ETV
attr source arpRequestSent
attr title "ARP request sent, vector(packetBytes)"
452	330236 26 929 929 0.857945619849 0.857945619849 1 28 28 28 784
vector 453 spineLeafNetwork.H8.eth[0].encap encapPk:vector(packetBytes) ETV
attr interpolationmode none
attr source encapPk
attr title "packets encapsulated, vector(packetBytes)"
453	330262 295 930 6454 0.857945619849 9.857945619849 11 28 84 868 71344
vector 454 spineLeafNetwork.H8.eth[0].mac packetReceivedFromUpper:vector(packetBytes) ETV
attr interpolationmode none
attr source packetReceivedFromUpper
attr title "packet bytes from higher layer, vector(packetBytes)"
454	330557 305 931 6455 0.857945619849 9.857945619849 11 46 102 1066 106156
vector 455 spineLeafNetwork.H8.eth[0].mac.queue packetPushed:vector(packetBytes) ETV
attr interpolationmode none
attr title "packet pushed, vector(packetBytes)"
455	330862 305 931 6455 0.857945619849 9.857945619849 11 64 102 1084 108136
vector 456 spineLeafNetwork.H8.eth[0].mac.queue queueLength:vector ETV
attr interpolationmode sample-hold
attr source "count(packetPushed) - count(packetPopped) - count(packetRemoved) - count(packetDropped)"
attr title "queue length, vector"
456	331167 568 931 6455 0.857945619849 9.857945619849 22 0 1 11 11
vector 457 spineLeafNetwork.H8.eth[0].mac.queue packetPopped:vector(packetBytes) ETV
attr interpolationmode none
attr title "packet popped, vector(packetBytes)"
457	331735 305 931 6455 0.857945619849 9.857945619849 11 64 102 1084 108136
vector 458 spineLeafNetwork.H8.eth[0].mac.queue queueingTime:vector ETV
attr interpolationmode none
attr source queueingTime(packetPopped)
attr title "queueing times, vector"
attr unit s
458	332040 284 931 6455 0.857945619849 9.857945619849 11 0 0 0 0
vector 459 spineLeafNetwork.H8.eth[0].mac txPk:vector(packetBytes) ETV
attr interpolationmode none
attr source packetSentToLower
attr title "packets transmitted, vector(packetBytes)"
459	332324 305 932 6456 0.857951379849 9.857954419849 11 64 102 1084 108136
vector 460 spineLeafNetwork.leaf3.eth[4].mac rxPkOk:vector(packetBytes) ETV
attr interpolationmode none
attr source rxPkOk
attr title "packets received OK, vector(packetBytes)"
460	332629 305 933 6457 0.857951429849 9.857954469849 11 64 102 1084 108136
vector 461 spineLeafNetwork.leaf3.eth[4].mac passedUpPk:vector(packetBytes) ETV
attr interpolationmode none
attr source packetSentToUpper
attr title "packets passed to higher layer, vector(packetBytes)"
461	332934 305 933 6457 0.857951429849 9.857954469849 11 64 102 1084 108136
vector 462 spineLeafNetwork.leaf3.eth[4].encap decapPk:vector(packetBytes) ETV
attr interpolationmode none
attr source decapPk
attr title "packets decapsulated, vector(packetBytes)"
462	333239 295 934 6458 0.857951429849 9.857954469849 11 46 84 886 72676
vector 463 spineLeafNetwork.leaf3.eth[4].encap encapPk:vector(packetBytes) ETV
attr interpolationmode none
attr source encapPk
attr title "packets encapsulated, vector(packetBytes)"
463	333534 296 936 6505 0.857951429849 9.858007569849 11 28 84 868 71344
vector 464 spineLeafNetwork.leaf3.eth[4].mac packetReceivedFromUpper:vector(packetBytes) ETV
attr interpolationmode none
attr source packetReceivedFromUpper
attr title "packet bytes from higher layer, vector(packetBytes)"
464	333830 306 937 6506 0.857951429849 9.858007569849 11 46 102 1066 106156
vector 465 spineLeafNetwork.leaf3.eth[4].mac.queue packetPushed:vector(packetBytes) ETV
attr interpolationmode none
attr title "packet pushed, vector(packetBytes)"
465	334136 306 937 6506 0.857951429849 9.858007569849 11 64 102 1084 108136
vector 466 spineLeafNetwork.leaf3.eth[4].mac.queue queueLength:vector ETV
attr interpolationmode sample-hold
attr source "count(packetPushed) - count(packetPopped) - count(packetRemoved) - count(packetDropped)"
attr title "queue length, vector"
466	334442 570 937 6506 0.857951429849 9.858007569849 22 0 1 11 11
vector 467 spineLeafNetwork.leaf3.eth[4].mac.queue packetPopped:vector(packetBytes) ETV
attr interpolationmode none
attr title "packet popped, vector(packetBytes)"
467	335012 306 937 6506 0.857951429849 9.858007569849 11 64 102 1084 108136
vector 468 spineLeafNetwork.leaf3.eth[4].mac.queue queueingTime:vector ETV
attr interpolationmode none
attr source queueingTime(packetPopped)
attr title "queueing times, vector"
attr unit s
468	335318 285 937 6506 0.857951429849 9.858007569849 11 0 0 0 0
vector 469 spineLeafNetwork.leaf3.eth[4].mac txPk:vector(packetBytes) ETV
attr interpolationmode none
attr source packetSentToLower
attr title "packets transmitted, vector(packetBytes)"
469	335603 306 939 6508 0.857957189849 9.858016369849 11 64 102 1084 108136
vector 470 spineLeafNetwork.H8.eth[0].mac rxPkOk:vector(packetBytes) ETV
attr interpolationmode none
attr source rxPkOk
attr title "packets received OK, vector(packetBytes)"
470	335909 306 940 6509 0.857957239849 9.858016419849 11 64 102 1084 108136
vector 471 spineLeafNetwork.H8.eth[0].mac passedUpPk:vector(packetBytes) ETV
attr interpolationmode none
attr source packetSentToUpper
attr title "packets passed to higher layer, vector(packetBytes)"
471	336215 306 940 6509 0.857957239849 9.858016419849 11 64 102 1084 108136
vector 472 spineLeafNetwork.H8.eth[0].encap decapPk:vector(packetBytes) ETV
attr interpolationmode none
attr source decapPk
attr title "packets decapsulated, vector(packetBytes)"
472	336521 296 941 6510 0.857957239849 9.858016419849 11 46 84 886 72676
vector 473 spineLeafNetwork.spine1.eth[2].encap encapPk:vector(packetBytes) ETV
attr interpolationmode none
attr source encapPk
attr title "packets encapsulated, vector(packetBytes)"
473	336817 349 1002 6172 0.858021959849 9.592897716389 13 28 84 980 79184
vector 474 spineLeafNetwork.spine1.eth[2].mac packetReceivedFromUpper:vector(packetBytes) ETV
attr interpolationmode none
attr source packetReceivedFromUpper
attr title "packet bytes from higher layer, vector(packetBytes)"
474	337166 360 1003 6173 0.858021959849 9.592897716389 13 46 102 1214 118676
vector 475 spineLeafNetwork.spine1.eth[2].mac.queue packetPushed:vector(packetBytes) ETV
attr interpolationmode none
attr title "packet pushed, vector(packetBytes)"
475	337526 360 1003 6173 0.858021959849 9.592897716389 13 64 102 1250 122636
vector 476 spineLeafNetwork.spine1.eth[2].mac.queue queueLength:vector ETV
attr interpolationmode sample-hold
attr source "count(packetPushed) - count(packetPopped) - count(packetRemoved) - count(packetDropped)"
attr title "queue length, vector"
476	337886 672 1003 6173 0.858021959849 9.592897716389 26 0 1 13 13
vector 477 spineLeafNetwork.spine1.eth[2].mac.queue packetPopped:vector(packetBytes) ETV
attr interpolationmode none
attr title "packet popped, vector(packetBytes)"
477	338558 360 1003 6173 0.858021959849 9.592897716389 13 64 102 1250 122636
vector 478 spineLeafNetwork.spine1.eth[2].mac.queue queueingTime:vector ETV
attr interpolationmode none
attr source queueingTime(packetPopped)
attr title "queueing times, vector"
attr unit s
478	338918 336 1003 6173 0.858021959849 9.592897716389 13 0 0 0 0
vector 479 spineLeafNetwork.spine1.eth[2].mac txPk:vector(packetBytes) ETV
attr interpolationmode none
attr source packetSentToLower
attr title "packets transmitted, vector(packetBytes)"
479	339254 360 1005 6175 0.858027719849 9.592906516389 13 64 102 1250 122636
vector 480 spineLeafNetwork.leaf3.eth[0].mac rxPkOk:vector(packetBytes) ETV
attr interpolationmode none
attr source rxPkOk
attr title "packets received OK, vector(packetBytes)"
480	339614 360 1006 6176 0.858027769849 9.592906566389 13 64 102 1250 122636
vector 481 spineLeafNetwork.leaf3.eth[0].mac passedUpPk:vector(packetBytes) ETV
attr interpolationmode none
attr source packetSentToUpper
attr title "packets passed to higher layer, vector(packetBytes)"
481	339974 360 1006 6176 0.858027769849 9.592906566389 13 64 102 1250 122636
vector 482 spineLeafNetwork.leaf3.eth[0].encap decapPk:vector(packetBytes) ETV
attr interpolationmode none
attr source decapPk
attr title "packets decapsulated, vector(packetBytes)"
482	340334 349 1007 6177 0.858027769849 9.592906566389 13 46 84 1016 81848
vector 483 spineLeafNetwork.leaf3.eth[0].encap encapPk:vector(packetBytes) ETV
attr interpolationmode none
attr source encapPk
attr title "packets encapsulated, vector(packetBytes)"
483	340683 322 1009 6460 0.858027769849 9.857954469849 12 28 84 896 72128
vector 484 spineLeafNetwork.leaf3.eth[0].mac packetReceivedFromUpper:vector(packetBytes) ETV
attr interpolationmode none
attr source packetReceivedFromUpper
attr title "packet bytes from higher layer, vector(packetBytes)"
484	341005 332 1010 6461 0.858027769849 9.857954469849 12 46 102 1112 108272
vector 485 spineLeafNetwork.leaf3.eth[0].mac.queue packetPushed:vector(packetBytes) ETV
attr interpolationmode none
attr title "packet pushed, vector(packetBytes)"
485	341337 332 1010 6461 0.858027769849 9.857954469849 12 64 102 1148 112232
vector 486 spineLeafNetwork.leaf3.eth[0].mac.queue queueLength:vector ETV
attr interpolationmode sample-hold
attr source "count(packetPushed) - count(packetPopped) - count(packetRemoved) - count(packetDropped)"
attr title "queue length, vector"
486	341669 620 1010 6461 0.858027769849 9.857954469849 24 0 1 12 12
vector 487 spineLeafNetwork.leaf3.eth[0].mac.queue packetPopped:vector(packetBytes) ETV
attr interpolationmode none
attr title "packet popped, vector(packetBytes)"
487	342289 332 1010 6461 0.858027769849 9.857954469849 12 64 102 1148 112232
vector 488 spineLeafNetwork.leaf3.eth[0].mac.queue queueingTime:vector ETV
attr interpolationmode none
attr source queueingTime(packetPopped)
attr title "queueing times, vector"
attr unit s
488	342621 310 1010 6461 0.858027769849 9.857954469849 12 0 0 0 0
vector 489 spineLeafNetwork.leaf3.eth[0].mac txPk:vector(packetBytes) ETV
attr interpolationmode none
attr source packetSentToLower
attr title "packets transmitted, vector(packetBytes)"
489	342931 332 1012 6463 0.858033529849 9.857963269849 12 64 102 1148 112232
vector 490 spineLeafNetwork.spine1.eth[2].mac rxPkOk:vector(packetBytes) ETV
attr interpolationmode none
attr source rxPkOk
attr title "packets received OK, vector(packetBytes)"
490	343263 332 1013 6464 0.858033579849 9.857963319849 12 64 102 1148 112232
vector 491 spineLeafNetwork.spine1.eth[2].mac passedUpPk:vector(packetBytes) ETV
attr interpolationmode none
attr source packetSentToUpper
attr title "packets passed to higher layer, vector(packetBytes)"
491	343595 332 1013 6464 0.858033579849 9.857963319849 12 64 102 1148 112232
vector 492 spineLeafNetwork.spine1.eth[2].encap decapPk:vector(packetBytes) ETV
attr interpolationmode none
attr source decapPk
attr title "packets decapsulated, vector(packetBytes)"
492	343927 322 1014 6465 0.858033579849 9.857963319849 12 46 84 932 74792
vector 493 spineLeafNetwork.H8.app[0] pingRxSeq:vector ETV
attr interpolationmode none
attr title "ping rx seq, vector"
493	344249 260 1030 6512 0.858051279849 9.858016419849 10 0 9 45 285
vector 494 spineLeafNetwork.H8.app[0] rtt:vector ETV
attr interpolationmode none
attr title "ping round-trip time, vector"
attr unit s
494	344509 344 1030 6512 0.858051279849 9.858016419849 10 7.08e-005 0.00010566 0.0007661 5.98386284e-008
